data_ADARAA_clean
_audit_creation_date              2014-07-02
_audit_creation_method            'Materials Studio'
_symmetry_space_group_name_H-M    'P1'
_symmetry_Int_Tables_number       1
_symmetry_cell_setting            triclinic
loop_
_symmetry_equiv_pos_as_xyz
  x,y,z
_cell_length_a                    38.8050
_cell_length_b                    38.8050
_cell_length_c                    38.8050
_cell_angle_alpha                 90.0000
_cell_angle_beta                  90.0000
_cell_angle_gamma                 90.0000
loop_
_atom_site_label
_atom_site_type_symbol
_atom_site_fract_x
_atom_site_fract_y
_atom_site_fract_z
_atom_site_U_iso_or_equiv
_atom_site_adp_type
_atom_site_occupancy
Co1    Co    0.95034   0.36626   0.97391   0.01267  Uiso   1.00
Co2    Co    0.95995   0.22534   0.46859   0.01267  Uiso   1.00
Co3    Co    0.96644   0.31449   0.70400   0.01267  Uiso   1.00
Co4    Co    0.54966   0.63374   0.47391   0.01267  Uiso   1.00
Co5    Co    0.54005   0.77466   0.96859   0.01267  Uiso   1.00
Co6    Co    0.53356   0.68551   0.20400   0.01267  Uiso   1.00
Co7    Co    0.04966   0.86626   0.52609   0.01267  Uiso   1.00
Co8    Co    0.04005   0.72534   0.03141   0.01267  Uiso   1.00
Co9    Co    0.03356   0.81449   0.79600   0.01267  Uiso   1.00
Co10   Co    0.45034   0.13374   0.02609   0.01267  Uiso   1.00
Co11   Co    0.45995   0.27466   0.53141   0.01267  Uiso   1.00
Co12   Co    0.46644   0.18551   0.29600   0.01267  Uiso   1.00
Co13   Co    0.97391   0.95034   0.36626   0.01267  Uiso   1.00
Co14   Co    0.46859   0.95995   0.22534   0.01267  Uiso   1.00
Co15   Co    0.70400   0.96644   0.31449   0.01267  Uiso   1.00
Co16   Co    0.47391   0.54966   0.63374   0.01267  Uiso   1.00
Co17   Co    0.96859   0.54005   0.77466   0.01267  Uiso   1.00
Co18   Co    0.20400   0.53356   0.68551   0.01267  Uiso   1.00
Co19   Co    0.52609   0.04966   0.86626   0.01267  Uiso   1.00
Co20   Co    0.03141   0.04005   0.72534   0.01267  Uiso   1.00
Co21   Co    0.79600   0.03356   0.81449   0.01267  Uiso   1.00
Co22   Co    0.02609   0.45034   0.13374   0.01267  Uiso   1.00
Co23   Co    0.53141   0.45995   0.27466   0.01267  Uiso   1.00
Co24   Co    0.29600   0.46644   0.18551   0.01267  Uiso   1.00
Co25   Co    0.36626   0.97391   0.95034   0.01267  Uiso   1.00
Co26   Co    0.22534   0.46859   0.95995   0.01267  Uiso   1.00
Co27   Co    0.31449   0.70400   0.96644   0.01267  Uiso   1.00
Co28   Co    0.63374   0.47391   0.54966   0.01267  Uiso   1.00
Co29   Co    0.77466   0.96859   0.54005   0.01267  Uiso   1.00
Co30   Co    0.68551   0.20400   0.53356   0.01267  Uiso   1.00
Co31   Co    0.86626   0.52609   0.04966   0.01267  Uiso   1.00
Co32   Co    0.72534   0.03141   0.04005   0.01267  Uiso   1.00
Co33   Co    0.81449   0.79600   0.03356   0.01267  Uiso   1.00
Co34   Co    0.13374   0.02609   0.45034   0.01267  Uiso   1.00
Co35   Co    0.27466   0.53141   0.45995   0.01267  Uiso   1.00
Co36   Co    0.18551   0.29600   0.46644   0.01267  Uiso   1.00
Co37   Co    0.04966   0.63374   0.02609   0.01267  Uiso   1.00
Co38   Co    0.04005   0.77466   0.53141   0.01267  Uiso   1.00
Co39   Co    0.03356   0.68551   0.29600   0.01267  Uiso   1.00
Co40   Co    0.45034   0.36626   0.52609   0.01267  Uiso   1.00
Co41   Co    0.45995   0.22534   0.03141   0.01267  Uiso   1.00
Co42   Co    0.46644   0.31449   0.79600   0.01267  Uiso   1.00
Co43   Co    0.95034   0.13374   0.47391   0.01267  Uiso   1.00
Co44   Co    0.95995   0.27466   0.96859   0.01267  Uiso   1.00
Co45   Co    0.96644   0.18551   0.20400   0.01267  Uiso   1.00
Co46   Co    0.54966   0.86626   0.97391   0.01267  Uiso   1.00
Co47   Co    0.54005   0.72534   0.46859   0.01267  Uiso   1.00
Co48   Co    0.53356   0.81449   0.70400   0.01267  Uiso   1.00
Co49   Co    0.02609   0.04966   0.63374   0.01267  Uiso   1.00
Co50   Co    0.53141   0.04005   0.77466   0.01267  Uiso   1.00
Co51   Co    0.29600   0.03356   0.68551   0.01267  Uiso   1.00
Co52   Co    0.52609   0.45034   0.36626   0.01267  Uiso   1.00
Co53   Co    0.03141   0.45995   0.22534   0.01267  Uiso   1.00
Co54   Co    0.79600   0.46644   0.31449   0.01267  Uiso   1.00
Co55   Co    0.47391   0.95034   0.13374   0.01267  Uiso   1.00
Co56   Co    0.96859   0.95995   0.27466   0.01267  Uiso   1.00
Co57   Co    0.20400   0.96644   0.18551   0.01267  Uiso   1.00
Co58   Co    0.97391   0.54966   0.86626   0.01267  Uiso   1.00
Co59   Co    0.46859   0.54005   0.72534   0.01267  Uiso   1.00
Co60   Co    0.70400   0.53356   0.81449   0.01267  Uiso   1.00
Co61   Co    0.63374   0.02609   0.04966   0.01267  Uiso   1.00
Co62   Co    0.77466   0.53141   0.04005   0.01267  Uiso   1.00
Co63   Co    0.68551   0.29600   0.03356   0.01267  Uiso   1.00
Co64   Co    0.36626   0.52609   0.45034   0.01267  Uiso   1.00
Co65   Co    0.22534   0.03141   0.45995   0.01267  Uiso   1.00
Co66   Co    0.31449   0.79600   0.46644   0.01267  Uiso   1.00
Co67   Co    0.13374   0.47391   0.95034   0.01267  Uiso   1.00
Co68   Co    0.27466   0.96859   0.95995   0.01267  Uiso   1.00
Co69   Co    0.18551   0.20400   0.96644   0.01267  Uiso   1.00
Co70   Co    0.86626   0.97391   0.54966   0.01267  Uiso   1.00
Co71   Co    0.72534   0.46859   0.54005   0.01267  Uiso   1.00
Co72   Co    0.81449   0.70400   0.53356   0.01267  Uiso   1.00
H1     H     0.98400   0.13560   0.57510   0.01267  Uiso   1.00
H2     H     0.96180   0.23350   0.58080   0.01267  Uiso   1.00
H3     H     0.99660   0.18840   0.66460   0.01267  Uiso   1.00
H4     H     0.93720   0.35090   0.83400   0.01267  Uiso   1.00
H5     H     0.94800   0.44060   0.88440   0.01267  Uiso   1.00
H6     H     0.95980   0.43650   0.78180   0.01267  Uiso   1.00
H7     H     0.89330   0.40700   0.76440   0.01267  Uiso   1.00
H8     H     0.85490   0.38170   0.71990   0.01267  Uiso   1.00
H9     H     0.86720   0.28490   0.62930   0.01267  Uiso   1.00
H10    H     0.90950   0.24370   0.60610   0.01267  Uiso   1.00
H11    H     0.80710   0.38500   0.61380   0.01267  Uiso   1.00
H12    H     0.76000   0.36080   0.64260   0.01267  Uiso   1.00
H13    H     0.76900   0.31990   0.68600   0.01267  Uiso   1.00
H14    H     0.04370   0.23000   0.63940   0.01267  Uiso   1.00
H15    H     0.08620   0.26220   0.67510   0.01267  Uiso   1.00
H16    H     0.06940   0.34830   0.77990   0.01267  Uiso   1.00
H17    H     0.01850   0.37490   0.80760   0.01267  Uiso   1.00
H18    H     0.15460   0.27720   0.76800   0.01267  Uiso   1.00
H19    H     0.18610   0.32040   0.73990   0.01267  Uiso   1.00
H20    H     0.15810   0.35900   0.70310   0.01267  Uiso   1.00
H21    H     0.51600   0.86440   0.07510   0.01267  Uiso   1.00
H22    H     0.53820   0.76650   0.08080   0.01267  Uiso   1.00
H23    H     0.50340   0.81160   0.16460   0.01267  Uiso   1.00
H24    H     0.56280   0.64910   0.33400   0.01267  Uiso   1.00
H25    H     0.55200   0.55940   0.38440   0.01267  Uiso   1.00
H26    H     0.54020   0.56350   0.28180   0.01267  Uiso   1.00
H27    H     0.60670   0.59300   0.26440   0.01267  Uiso   1.00
H28    H     0.64510   0.61830   0.21990   0.01267  Uiso   1.00
H29    H     0.63280   0.71510   0.12930   0.01267  Uiso   1.00
H30    H     0.59050   0.75630   0.10610   0.01267  Uiso   1.00
H31    H     0.69290   0.61500   0.11380   0.01267  Uiso   1.00
H32    H     0.74000   0.63920   0.14260   0.01267  Uiso   1.00
H33    H     0.73100   0.68010   0.18600   0.01267  Uiso   1.00
H34    H     0.45630   0.77000   0.13940   0.01267  Uiso   1.00
H35    H     0.41380   0.73780   0.17510   0.01267  Uiso   1.00
H36    H     0.43060   0.65170   0.27990   0.01267  Uiso   1.00
H37    H     0.48150   0.62510   0.30760   0.01267  Uiso   1.00
H38    H     0.34540   0.72280   0.26800   0.01267  Uiso   1.00
H39    H     0.31390   0.67960   0.23990   0.01267  Uiso   1.00
H40    H     0.34190   0.64100   0.20310   0.01267  Uiso   1.00
H41    H     0.01600   0.63560   0.92490   0.01267  Uiso   1.00
H42    H     0.03820   0.73350   0.91920   0.01267  Uiso   1.00
H43    H     0.00340   0.68840   0.83540   0.01267  Uiso   1.00
H44    H     0.06280   0.85090   0.66600   0.01267  Uiso   1.00
H45    H     0.05200   0.94060   0.61560   0.01267  Uiso   1.00
H46    H     0.04020   0.93650   0.71820   0.01267  Uiso   1.00
H47    H     0.10670   0.90700   0.73560   0.01267  Uiso   1.00
H48    H     0.14510   0.88170   0.78010   0.01267  Uiso   1.00
H49    H     0.13280   0.78490   0.87070   0.01267  Uiso   1.00
H50    H     0.09050   0.74370   0.89390   0.01267  Uiso   1.00
H51    H     0.19290   0.88500   0.88620   0.01267  Uiso   1.00
H52    H     0.24000   0.86080   0.85740   0.01267  Uiso   1.00
H53    H     0.23100   0.81990   0.81400   0.01267  Uiso   1.00
H54    H     0.95630   0.73000   0.86060   0.01267  Uiso   1.00
H55    H     0.91380   0.76220   0.82490   0.01267  Uiso   1.00
H56    H     0.93060   0.84830   0.72010   0.01267  Uiso   1.00
H57    H     0.98150   0.87490   0.69240   0.01267  Uiso   1.00
H58    H     0.84540   0.77720   0.73200   0.01267  Uiso   1.00
H59    H     0.81390   0.82040   0.76010   0.01267  Uiso   1.00
H60    H     0.84190   0.85900   0.79690   0.01267  Uiso   1.00
H61    H     0.48400   0.36440   0.42490   0.01267  Uiso   1.00
H62    H     0.46180   0.26650   0.41920   0.01267  Uiso   1.00
H63    H     0.49660   0.31160   0.33540   0.01267  Uiso   1.00
H64    H     0.43720   0.14910   0.16600   0.01267  Uiso   1.00
H65    H     0.44800   0.05940   0.11560   0.01267  Uiso   1.00
H66    H     0.45980   0.06350   0.21820   0.01267  Uiso   1.00
H67    H     0.39330   0.09300   0.23560   0.01267  Uiso   1.00
H68    H     0.35490   0.11830   0.28010   0.01267  Uiso   1.00
H69    H     0.36720   0.21510   0.37070   0.01267  Uiso   1.00
H70    H     0.40950   0.25630   0.39390   0.01267  Uiso   1.00
H71    H     0.30710   0.11500   0.38620   0.01267  Uiso   1.00
H72    H     0.26000   0.13920   0.35740   0.01267  Uiso   1.00
H73    H     0.26900   0.18010   0.31400   0.01267  Uiso   1.00
H74    H     0.54370   0.27000   0.36060   0.01267  Uiso   1.00
H75    H     0.58620   0.23780   0.32490   0.01267  Uiso   1.00
H76    H     0.56940   0.15170   0.22010   0.01267  Uiso   1.00
H77    H     0.51850   0.12510   0.19240   0.01267  Uiso   1.00
H78    H     0.65460   0.22280   0.23200   0.01267  Uiso   1.00
H79    H     0.68610   0.17960   0.26010   0.01267  Uiso   1.00
H80    H     0.65810   0.14100   0.29690   0.01267  Uiso   1.00
H81    H     0.57510   0.98400   0.13560   0.01267  Uiso   1.00
H82    H     0.58080   0.96180   0.23350   0.01267  Uiso   1.00
H83    H     0.66460   0.99660   0.18840   0.01267  Uiso   1.00
H84    H     0.83400   0.93720   0.35090   0.01267  Uiso   1.00
H85    H     0.88440   0.94800   0.44060   0.01267  Uiso   1.00
H86    H     0.78180   0.95980   0.43650   0.01267  Uiso   1.00
H87    H     0.76440   0.89330   0.40700   0.01267  Uiso   1.00
H88    H     0.71990   0.85490   0.38170   0.01267  Uiso   1.00
H89    H     0.62930   0.86720   0.28490   0.01267  Uiso   1.00
H90    H     0.60610   0.90950   0.24370   0.01267  Uiso   1.00
H91    H     0.61380   0.80710   0.38500   0.01267  Uiso   1.00
H92    H     0.64260   0.76000   0.36080   0.01267  Uiso   1.00
H93    H     0.68600   0.76900   0.31990   0.01267  Uiso   1.00
H94    H     0.63940   0.04370   0.23000   0.01267  Uiso   1.00
H95    H     0.67510   0.08620   0.26220   0.01267  Uiso   1.00
H96    H     0.77990   0.06940   0.34830   0.01267  Uiso   1.00
H97    H     0.80760   0.01850   0.37490   0.01267  Uiso   1.00
H98    H     0.76800   0.15460   0.27720   0.01267  Uiso   1.00
H99    H     0.73990   0.18610   0.32040   0.01267  Uiso   1.00
H100   H     0.70310   0.15810   0.35900   0.01267  Uiso   1.00
H101   H     0.07510   0.51600   0.86440   0.01267  Uiso   1.00
H102   H     0.08080   0.53820   0.76650   0.01267  Uiso   1.00
H103   H     0.16460   0.50340   0.81160   0.01267  Uiso   1.00
H104   H     0.33400   0.56280   0.64910   0.01267  Uiso   1.00
H105   H     0.38440   0.55200   0.55940   0.01267  Uiso   1.00
H106   H     0.28180   0.54020   0.56350   0.01267  Uiso   1.00
H107   H     0.26440   0.60670   0.59300   0.01267  Uiso   1.00
H108   H     0.21990   0.64510   0.61830   0.01267  Uiso   1.00
H109   H     0.12930   0.63280   0.71510   0.01267  Uiso   1.00
H110   H     0.10610   0.59050   0.75630   0.01267  Uiso   1.00
H111   H     0.11380   0.69290   0.61500   0.01267  Uiso   1.00
H112   H     0.14260   0.74000   0.63920   0.01267  Uiso   1.00
H113   H     0.18600   0.73100   0.68010   0.01267  Uiso   1.00
H114   H     0.13940   0.45630   0.77000   0.01267  Uiso   1.00
H115   H     0.17510   0.41380   0.73780   0.01267  Uiso   1.00
H116   H     0.27990   0.43060   0.65170   0.01267  Uiso   1.00
H117   H     0.30760   0.48150   0.62510   0.01267  Uiso   1.00
H118   H     0.26800   0.34540   0.72280   0.01267  Uiso   1.00
H119   H     0.23990   0.31390   0.67960   0.01267  Uiso   1.00
H120   H     0.20310   0.34190   0.64100   0.01267  Uiso   1.00
H121   H     0.92490   0.01600   0.63560   0.01267  Uiso   1.00
H122   H     0.91920   0.03820   0.73350   0.01267  Uiso   1.00
H123   H     0.83540   0.00340   0.68840   0.01267  Uiso   1.00
H124   H     0.66600   0.06280   0.85090   0.01267  Uiso   1.00
H125   H     0.61560   0.05200   0.94060   0.01267  Uiso   1.00
H126   H     0.71820   0.04020   0.93650   0.01267  Uiso   1.00
H127   H     0.73560   0.10670   0.90700   0.01267  Uiso   1.00
H128   H     0.78010   0.14510   0.88170   0.01267  Uiso   1.00
H129   H     0.87070   0.13280   0.78490   0.01267  Uiso   1.00
H130   H     0.89390   0.09050   0.74370   0.01267  Uiso   1.00
H131   H     0.88620   0.19290   0.88500   0.01267  Uiso   1.00
H132   H     0.85740   0.24000   0.86080   0.01267  Uiso   1.00
H133   H     0.81400   0.23100   0.81990   0.01267  Uiso   1.00
H134   H     0.86060   0.95630   0.73000   0.01267  Uiso   1.00
H135   H     0.82490   0.91380   0.76220   0.01267  Uiso   1.00
H136   H     0.72010   0.93060   0.84830   0.01267  Uiso   1.00
H137   H     0.69240   0.98150   0.87490   0.01267  Uiso   1.00
H138   H     0.73200   0.84540   0.77720   0.01267  Uiso   1.00
H139   H     0.76010   0.81390   0.82040   0.01267  Uiso   1.00
H140   H     0.79690   0.84190   0.85900   0.01267  Uiso   1.00
H141   H     0.42490   0.48400   0.36440   0.01267  Uiso   1.00
H142   H     0.41920   0.46180   0.26650   0.01267  Uiso   1.00
H143   H     0.33540   0.49660   0.31160   0.01267  Uiso   1.00
H144   H     0.16600   0.43720   0.14910   0.01267  Uiso   1.00
H145   H     0.11560   0.44800   0.05940   0.01267  Uiso   1.00
H146   H     0.21820   0.45980   0.06350   0.01267  Uiso   1.00
H147   H     0.23560   0.39330   0.09300   0.01267  Uiso   1.00
H148   H     0.28010   0.35490   0.11830   0.01267  Uiso   1.00
H149   H     0.37070   0.36720   0.21510   0.01267  Uiso   1.00
H150   H     0.39390   0.40950   0.25630   0.01267  Uiso   1.00
H151   H     0.38620   0.30710   0.11500   0.01267  Uiso   1.00
H152   H     0.35740   0.26000   0.13920   0.01267  Uiso   1.00
H153   H     0.31400   0.26900   0.18010   0.01267  Uiso   1.00
H154   H     0.36060   0.54370   0.27000   0.01267  Uiso   1.00
H155   H     0.32490   0.58620   0.23780   0.01267  Uiso   1.00
H156   H     0.22010   0.56940   0.15170   0.01267  Uiso   1.00
H157   H     0.19240   0.51850   0.12510   0.01267  Uiso   1.00
H158   H     0.23200   0.65460   0.22280   0.01267  Uiso   1.00
H159   H     0.26010   0.68610   0.17960   0.01267  Uiso   1.00
H160   H     0.29690   0.65810   0.14100   0.01267  Uiso   1.00
H161   H     0.13560   0.57510   0.98400   0.01267  Uiso   1.00
H162   H     0.23350   0.58080   0.96180   0.01267  Uiso   1.00
H163   H     0.18840   0.66460   0.99660   0.01267  Uiso   1.00
H164   H     0.35090   0.83400   0.93720   0.01267  Uiso   1.00
H165   H     0.44060   0.88440   0.94800   0.01267  Uiso   1.00
H166   H     0.43650   0.78180   0.95980   0.01267  Uiso   1.00
H167   H     0.40700   0.76440   0.89330   0.01267  Uiso   1.00
H168   H     0.38170   0.71990   0.85490   0.01267  Uiso   1.00
H169   H     0.28490   0.62930   0.86720   0.01267  Uiso   1.00
H170   H     0.24370   0.60610   0.90950   0.01267  Uiso   1.00
H171   H     0.38500   0.61380   0.80710   0.01267  Uiso   1.00
H172   H     0.36080   0.64260   0.76000   0.01267  Uiso   1.00
H173   H     0.31990   0.68600   0.76900   0.01267  Uiso   1.00
H174   H     0.23000   0.63940   0.04370   0.01267  Uiso   1.00
H175   H     0.26220   0.67510   0.08620   0.01267  Uiso   1.00
H176   H     0.34830   0.77990   0.06940   0.01267  Uiso   1.00
H177   H     0.37490   0.80760   0.01850   0.01267  Uiso   1.00
H178   H     0.27720   0.76800   0.15460   0.01267  Uiso   1.00
H179   H     0.32040   0.73990   0.18610   0.01267  Uiso   1.00
H180   H     0.35900   0.70310   0.15810   0.01267  Uiso   1.00
H181   H     0.86440   0.07510   0.51600   0.01267  Uiso   1.00
H182   H     0.76650   0.08080   0.53820   0.01267  Uiso   1.00
H183   H     0.81160   0.16460   0.50340   0.01267  Uiso   1.00
H184   H     0.64910   0.33400   0.56280   0.01267  Uiso   1.00
H185   H     0.55940   0.38440   0.55200   0.01267  Uiso   1.00
H186   H     0.56350   0.28180   0.54020   0.01267  Uiso   1.00
H187   H     0.59300   0.26440   0.60670   0.01267  Uiso   1.00
H188   H     0.61830   0.21990   0.64510   0.01267  Uiso   1.00
H189   H     0.71510   0.12930   0.63280   0.01267  Uiso   1.00
H190   H     0.75630   0.10610   0.59050   0.01267  Uiso   1.00
H191   H     0.61500   0.11380   0.69290   0.01267  Uiso   1.00
H192   H     0.63920   0.14260   0.74000   0.01267  Uiso   1.00
H193   H     0.68010   0.18600   0.73100   0.01267  Uiso   1.00
H194   H     0.77000   0.13940   0.45630   0.01267  Uiso   1.00
H195   H     0.73780   0.17510   0.41380   0.01267  Uiso   1.00
H196   H     0.65170   0.27990   0.43060   0.01267  Uiso   1.00
H197   H     0.62510   0.30760   0.48150   0.01267  Uiso   1.00
H198   H     0.72280   0.26800   0.34540   0.01267  Uiso   1.00
H199   H     0.67960   0.23990   0.31390   0.01267  Uiso   1.00
H200   H     0.64100   0.20310   0.34190   0.01267  Uiso   1.00
H201   H     0.63560   0.92490   0.01600   0.01267  Uiso   1.00
H202   H     0.73350   0.91920   0.03820   0.01267  Uiso   1.00
H203   H     0.68840   0.83540   0.00340   0.01267  Uiso   1.00
H204   H     0.85090   0.66600   0.06280   0.01267  Uiso   1.00
H205   H     0.94060   0.61560   0.05200   0.01267  Uiso   1.00
H206   H     0.93650   0.71820   0.04020   0.01267  Uiso   1.00
H207   H     0.90700   0.73560   0.10670   0.01267  Uiso   1.00
H208   H     0.88170   0.78010   0.14510   0.01267  Uiso   1.00
H209   H     0.78490   0.87070   0.13280   0.01267  Uiso   1.00
H210   H     0.74370   0.89390   0.09050   0.01267  Uiso   1.00
H211   H     0.88500   0.88620   0.19290   0.01267  Uiso   1.00
H212   H     0.86080   0.85740   0.24000   0.01267  Uiso   1.00
H213   H     0.81990   0.81400   0.23100   0.01267  Uiso   1.00
H214   H     0.73000   0.86060   0.95630   0.01267  Uiso   1.00
H215   H     0.76220   0.82490   0.91380   0.01267  Uiso   1.00
H216   H     0.84830   0.72010   0.93060   0.01267  Uiso   1.00
H217   H     0.87490   0.69240   0.98150   0.01267  Uiso   1.00
H218   H     0.77720   0.73200   0.84540   0.01267  Uiso   1.00
H219   H     0.82040   0.76010   0.81390   0.01267  Uiso   1.00
H220   H     0.85900   0.79690   0.84190   0.01267  Uiso   1.00
H221   H     0.36440   0.42490   0.48400   0.01267  Uiso   1.00
H222   H     0.26650   0.41920   0.46180   0.01267  Uiso   1.00
H223   H     0.31160   0.33540   0.49660   0.01267  Uiso   1.00
H224   H     0.14910   0.16600   0.43720   0.01267  Uiso   1.00
H225   H     0.05940   0.11560   0.44800   0.01267  Uiso   1.00
H226   H     0.06350   0.21820   0.45980   0.01267  Uiso   1.00
H227   H     0.09300   0.23560   0.39330   0.01267  Uiso   1.00
H228   H     0.11830   0.28010   0.35490   0.01267  Uiso   1.00
H229   H     0.21510   0.37070   0.36720   0.01267  Uiso   1.00
H230   H     0.25630   0.39390   0.40950   0.01267  Uiso   1.00
H231   H     0.11500   0.38620   0.30710   0.01267  Uiso   1.00
H232   H     0.13920   0.35740   0.26000   0.01267  Uiso   1.00
H233   H     0.18010   0.31400   0.26900   0.01267  Uiso   1.00
H234   H     0.27000   0.36060   0.54370   0.01267  Uiso   1.00
H235   H     0.23780   0.32490   0.58620   0.01267  Uiso   1.00
H236   H     0.15170   0.22010   0.56940   0.01267  Uiso   1.00
H237   H     0.12510   0.19240   0.51850   0.01267  Uiso   1.00
H238   H     0.22280   0.23200   0.65460   0.01267  Uiso   1.00
H239   H     0.17960   0.26010   0.68610   0.01267  Uiso   1.00
H240   H     0.14100   0.29690   0.65810   0.01267  Uiso   1.00
H241   H     0.01600   0.86440   0.42490   0.01267  Uiso   1.00
H242   H     0.03820   0.76650   0.41920   0.01267  Uiso   1.00
H243   H     0.00340   0.81160   0.33540   0.01267  Uiso   1.00
H244   H     0.06280   0.64910   0.16600   0.01267  Uiso   1.00
H245   H     0.05200   0.55940   0.11560   0.01267  Uiso   1.00
H246   H     0.04020   0.56350   0.21820   0.01267  Uiso   1.00
H247   H     0.10670   0.59300   0.23560   0.01267  Uiso   1.00
H248   H     0.14510   0.61830   0.28010   0.01267  Uiso   1.00
H249   H     0.13280   0.71510   0.37070   0.01267  Uiso   1.00
H250   H     0.09050   0.75630   0.39390   0.01267  Uiso   1.00
H251   H     0.19290   0.61500   0.38620   0.01267  Uiso   1.00
H252   H     0.24000   0.63920   0.35740   0.01267  Uiso   1.00
H253   H     0.23100   0.68010   0.31400   0.01267  Uiso   1.00
H254   H     0.95630   0.77000   0.36060   0.01267  Uiso   1.00
H255   H     0.91380   0.73780   0.32490   0.01267  Uiso   1.00
H256   H     0.93060   0.65170   0.22010   0.01267  Uiso   1.00
H257   H     0.98150   0.62510   0.19240   0.01267  Uiso   1.00
H258   H     0.84540   0.72280   0.23200   0.01267  Uiso   1.00
H259   H     0.81390   0.67960   0.26010   0.01267  Uiso   1.00
H260   H     0.84190   0.64100   0.29690   0.01267  Uiso   1.00
H261   H     0.48400   0.13560   0.92490   0.01267  Uiso   1.00
H262   H     0.46180   0.23350   0.91920   0.01267  Uiso   1.00
H263   H     0.49660   0.18840   0.83540   0.01267  Uiso   1.00
H264   H     0.43720   0.35090   0.66600   0.01267  Uiso   1.00
H265   H     0.44800   0.44060   0.61560   0.01267  Uiso   1.00
H266   H     0.45980   0.43650   0.71820   0.01267  Uiso   1.00
H267   H     0.39330   0.40700   0.73560   0.01267  Uiso   1.00
H268   H     0.35490   0.38170   0.78010   0.01267  Uiso   1.00
H269   H     0.36720   0.28490   0.87070   0.01267  Uiso   1.00
H270   H     0.40950   0.24370   0.89390   0.01267  Uiso   1.00
H271   H     0.30710   0.38500   0.88620   0.01267  Uiso   1.00
H272   H     0.26000   0.36080   0.85740   0.01267  Uiso   1.00
H273   H     0.26900   0.31990   0.81400   0.01267  Uiso   1.00
H274   H     0.54370   0.23000   0.86060   0.01267  Uiso   1.00
H275   H     0.58620   0.26220   0.82490   0.01267  Uiso   1.00
H276   H     0.56940   0.34830   0.72010   0.01267  Uiso   1.00
H277   H     0.51850   0.37490   0.69240   0.01267  Uiso   1.00
H278   H     0.65460   0.27720   0.73200   0.01267  Uiso   1.00
H279   H     0.68610   0.32040   0.76010   0.01267  Uiso   1.00
H280   H     0.65810   0.35900   0.79690   0.01267  Uiso   1.00
H281   H     0.98400   0.36440   0.07510   0.01267  Uiso   1.00
H282   H     0.96180   0.26650   0.08080   0.01267  Uiso   1.00
H283   H     0.99660   0.31160   0.16460   0.01267  Uiso   1.00
H284   H     0.93720   0.14910   0.33400   0.01267  Uiso   1.00
H285   H     0.94800   0.05940   0.38440   0.01267  Uiso   1.00
H286   H     0.95980   0.06350   0.28180   0.01267  Uiso   1.00
H287   H     0.89330   0.09300   0.26440   0.01267  Uiso   1.00
H288   H     0.85490   0.11830   0.21990   0.01267  Uiso   1.00
H289   H     0.86720   0.21510   0.12930   0.01267  Uiso   1.00
H290   H     0.90950   0.25630   0.10610   0.01267  Uiso   1.00
H291   H     0.80710   0.11500   0.11380   0.01267  Uiso   1.00
H292   H     0.76000   0.13920   0.14260   0.01267  Uiso   1.00
H293   H     0.76900   0.18010   0.18600   0.01267  Uiso   1.00
H294   H     0.04370   0.27000   0.13940   0.01267  Uiso   1.00
H295   H     0.08620   0.23780   0.17510   0.01267  Uiso   1.00
H296   H     0.06940   0.15170   0.27990   0.01267  Uiso   1.00
H297   H     0.01850   0.12510   0.30760   0.01267  Uiso   1.00
H298   H     0.15460   0.22280   0.26800   0.01267  Uiso   1.00
H299   H     0.18610   0.17960   0.23990   0.01267  Uiso   1.00
H300   H     0.15810   0.14100   0.20310   0.01267  Uiso   1.00
H301   H     0.51600   0.63560   0.57510   0.01267  Uiso   1.00
H302   H     0.53820   0.73350   0.58080   0.01267  Uiso   1.00
H303   H     0.50340   0.68840   0.66460   0.01267  Uiso   1.00
H304   H     0.56280   0.85090   0.83400   0.01267  Uiso   1.00
H305   H     0.55200   0.94060   0.88440   0.01267  Uiso   1.00
H306   H     0.54020   0.93650   0.78180   0.01267  Uiso   1.00
H307   H     0.60670   0.90700   0.76440   0.01267  Uiso   1.00
H308   H     0.64510   0.88170   0.71990   0.01267  Uiso   1.00
H309   H     0.63280   0.78490   0.62930   0.01267  Uiso   1.00
H310   H     0.59050   0.74370   0.60610   0.01267  Uiso   1.00
H311   H     0.69290   0.88500   0.61380   0.01267  Uiso   1.00
H312   H     0.74000   0.86080   0.64260   0.01267  Uiso   1.00
H313   H     0.73100   0.81990   0.68600   0.01267  Uiso   1.00
H314   H     0.45630   0.73000   0.63940   0.01267  Uiso   1.00
H315   H     0.41380   0.76220   0.67510   0.01267  Uiso   1.00
H316   H     0.43060   0.84830   0.77990   0.01267  Uiso   1.00
H317   H     0.48150   0.87490   0.80760   0.01267  Uiso   1.00
H318   H     0.34540   0.77720   0.76800   0.01267  Uiso   1.00
H319   H     0.31390   0.82040   0.73990   0.01267  Uiso   1.00
H320   H     0.34190   0.85900   0.70310   0.01267  Uiso   1.00
H321   H     0.42490   0.01600   0.86440   0.01267  Uiso   1.00
H322   H     0.41920   0.03820   0.76650   0.01267  Uiso   1.00
H323   H     0.33540   0.00340   0.81160   0.01267  Uiso   1.00
H324   H     0.16600   0.06280   0.64910   0.01267  Uiso   1.00
H325   H     0.11560   0.05200   0.55940   0.01267  Uiso   1.00
H326   H     0.21820   0.04020   0.56350   0.01267  Uiso   1.00
H327   H     0.23560   0.10670   0.59300   0.01267  Uiso   1.00
H328   H     0.28010   0.14510   0.61830   0.01267  Uiso   1.00
H329   H     0.37070   0.13280   0.71510   0.01267  Uiso   1.00
H330   H     0.39390   0.09050   0.75630   0.01267  Uiso   1.00
H331   H     0.38620   0.19290   0.61500   0.01267  Uiso   1.00
H332   H     0.35740   0.24000   0.63920   0.01267  Uiso   1.00
H333   H     0.31400   0.23100   0.68010   0.01267  Uiso   1.00
H334   H     0.36060   0.95630   0.77000   0.01267  Uiso   1.00
H335   H     0.32490   0.91380   0.73780   0.01267  Uiso   1.00
H336   H     0.22010   0.93060   0.65170   0.01267  Uiso   1.00
H337   H     0.19240   0.98150   0.62510   0.01267  Uiso   1.00
H338   H     0.23200   0.84540   0.72280   0.01267  Uiso   1.00
H339   H     0.26010   0.81390   0.67960   0.01267  Uiso   1.00
H340   H     0.29690   0.84190   0.64100   0.01267  Uiso   1.00
H341   H     0.92490   0.48400   0.13560   0.01267  Uiso   1.00
H342   H     0.91920   0.46180   0.23350   0.01267  Uiso   1.00
H343   H     0.83540   0.49660   0.18840   0.01267  Uiso   1.00
H344   H     0.66600   0.43720   0.35090   0.01267  Uiso   1.00
H345   H     0.61560   0.44800   0.44060   0.01267  Uiso   1.00
H346   H     0.71820   0.45980   0.43650   0.01267  Uiso   1.00
H347   H     0.73560   0.39330   0.40700   0.01267  Uiso   1.00
H348   H     0.78010   0.35490   0.38170   0.01267  Uiso   1.00
H349   H     0.87070   0.36720   0.28490   0.01267  Uiso   1.00
H350   H     0.89390   0.40950   0.24370   0.01267  Uiso   1.00
H351   H     0.88620   0.30710   0.38500   0.01267  Uiso   1.00
H352   H     0.85740   0.26000   0.36080   0.01267  Uiso   1.00
H353   H     0.81400   0.26900   0.31990   0.01267  Uiso   1.00
H354   H     0.86060   0.54370   0.23000   0.01267  Uiso   1.00
H355   H     0.82490   0.58620   0.26220   0.01267  Uiso   1.00
H356   H     0.72010   0.56940   0.34830   0.01267  Uiso   1.00
H357   H     0.69240   0.51850   0.37490   0.01267  Uiso   1.00
H358   H     0.73200   0.65460   0.27720   0.01267  Uiso   1.00
H359   H     0.76010   0.68610   0.32040   0.01267  Uiso   1.00
H360   H     0.79690   0.65810   0.35900   0.01267  Uiso   1.00
H361   H     0.07510   0.98400   0.36440   0.01267  Uiso   1.00
H362   H     0.08080   0.96180   0.26650   0.01267  Uiso   1.00
H363   H     0.16460   0.99660   0.31160   0.01267  Uiso   1.00
H364   H     0.33400   0.93720   0.14910   0.01267  Uiso   1.00
H365   H     0.38440   0.94800   0.05940   0.01267  Uiso   1.00
H366   H     0.28180   0.95980   0.06350   0.01267  Uiso   1.00
H367   H     0.26440   0.89330   0.09300   0.01267  Uiso   1.00
H368   H     0.21990   0.85490   0.11830   0.01267  Uiso   1.00
H369   H     0.12930   0.86720   0.21510   0.01267  Uiso   1.00
H370   H     0.10610   0.90950   0.25630   0.01267  Uiso   1.00
H371   H     0.11380   0.80710   0.11500   0.01267  Uiso   1.00
H372   H     0.14260   0.76000   0.13920   0.01267  Uiso   1.00
H373   H     0.18600   0.76900   0.18010   0.01267  Uiso   1.00
H374   H     0.13940   0.04370   0.27000   0.01267  Uiso   1.00
H375   H     0.17510   0.08620   0.23780   0.01267  Uiso   1.00
H376   H     0.27990   0.06940   0.15170   0.01267  Uiso   1.00
H377   H     0.30760   0.01850   0.12510   0.01267  Uiso   1.00
H378   H     0.26800   0.15460   0.22280   0.01267  Uiso   1.00
H379   H     0.23990   0.18610   0.17960   0.01267  Uiso   1.00
H380   H     0.20310   0.15810   0.14100   0.01267  Uiso   1.00
H381   H     0.57510   0.51600   0.63560   0.01267  Uiso   1.00
H382   H     0.58080   0.53820   0.73350   0.01267  Uiso   1.00
H383   H     0.66460   0.50340   0.68840   0.01267  Uiso   1.00
H384   H     0.83400   0.56280   0.85090   0.01267  Uiso   1.00
H385   H     0.88440   0.55200   0.94060   0.01267  Uiso   1.00
H386   H     0.78180   0.54020   0.93650   0.01267  Uiso   1.00
H387   H     0.76440   0.60670   0.90700   0.01267  Uiso   1.00
H388   H     0.71990   0.64510   0.88170   0.01267  Uiso   1.00
H389   H     0.62930   0.63280   0.78490   0.01267  Uiso   1.00
H390   H     0.60610   0.59050   0.74370   0.01267  Uiso   1.00
H391   H     0.61380   0.69290   0.88500   0.01267  Uiso   1.00
H392   H     0.64260   0.74000   0.86080   0.01267  Uiso   1.00
H393   H     0.68600   0.73100   0.81990   0.01267  Uiso   1.00
H394   H     0.63940   0.45630   0.73000   0.01267  Uiso   1.00
H395   H     0.67510   0.41380   0.76220   0.01267  Uiso   1.00
H396   H     0.77990   0.43060   0.84830   0.01267  Uiso   1.00
H397   H     0.80760   0.48150   0.87490   0.01267  Uiso   1.00
H398   H     0.76800   0.34540   0.77720   0.01267  Uiso   1.00
H399   H     0.73990   0.31390   0.82040   0.01267  Uiso   1.00
H400   H     0.70310   0.34190   0.85900   0.01267  Uiso   1.00
H401   H     0.86440   0.42490   0.01600   0.01267  Uiso   1.00
H402   H     0.76650   0.41920   0.03820   0.01267  Uiso   1.00
H403   H     0.81160   0.33540   0.00340   0.01267  Uiso   1.00
H404   H     0.64910   0.16600   0.06280   0.01267  Uiso   1.00
H405   H     0.55940   0.11560   0.05200   0.01267  Uiso   1.00
H406   H     0.56350   0.21820   0.04020   0.01267  Uiso   1.00
H407   H     0.59300   0.23560   0.10670   0.01267  Uiso   1.00
H408   H     0.61830   0.28010   0.14510   0.01267  Uiso   1.00
H409   H     0.71510   0.37070   0.13280   0.01267  Uiso   1.00
H410   H     0.75630   0.39390   0.09050   0.01267  Uiso   1.00
H411   H     0.61500   0.38620   0.19290   0.01267  Uiso   1.00
H412   H     0.63920   0.35740   0.24000   0.01267  Uiso   1.00
H413   H     0.68010   0.31400   0.23100   0.01267  Uiso   1.00
H414   H     0.77000   0.36060   0.95630   0.01267  Uiso   1.00
H415   H     0.73780   0.32490   0.91380   0.01267  Uiso   1.00
H416   H     0.65170   0.22010   0.93060   0.01267  Uiso   1.00
H417   H     0.62510   0.19240   0.98150   0.01267  Uiso   1.00
H418   H     0.72280   0.23200   0.84540   0.01267  Uiso   1.00
H419   H     0.67960   0.26010   0.81390   0.01267  Uiso   1.00
H420   H     0.64100   0.29690   0.84190   0.01267  Uiso   1.00
H421   H     0.13560   0.92490   0.48400   0.01267  Uiso   1.00
H422   H     0.23350   0.91920   0.46180   0.01267  Uiso   1.00
H423   H     0.18840   0.83540   0.49660   0.01267  Uiso   1.00
H424   H     0.35090   0.66600   0.43720   0.01267  Uiso   1.00
H425   H     0.44060   0.61560   0.44800   0.01267  Uiso   1.00
H426   H     0.43650   0.71820   0.45980   0.01267  Uiso   1.00
H427   H     0.40700   0.73560   0.39330   0.01267  Uiso   1.00
H428   H     0.38170   0.78010   0.35490   0.01267  Uiso   1.00
H429   H     0.28490   0.87070   0.36720   0.01267  Uiso   1.00
H430   H     0.24370   0.89390   0.40950   0.01267  Uiso   1.00
H431   H     0.38500   0.88620   0.30710   0.01267  Uiso   1.00
H432   H     0.36080   0.85740   0.26000   0.01267  Uiso   1.00
H433   H     0.31990   0.81400   0.26900   0.01267  Uiso   1.00
H434   H     0.23000   0.86060   0.54370   0.01267  Uiso   1.00
H435   H     0.26220   0.82490   0.58620   0.01267  Uiso   1.00
H436   H     0.34830   0.72010   0.56940   0.01267  Uiso   1.00
H437   H     0.37490   0.69240   0.51850   0.01267  Uiso   1.00
H438   H     0.27720   0.73200   0.65460   0.01267  Uiso   1.00
H439   H     0.32040   0.76010   0.68610   0.01267  Uiso   1.00
H440   H     0.35900   0.79690   0.65810   0.01267  Uiso   1.00
H441   H     0.36440   0.07510   0.98400   0.01267  Uiso   1.00
H442   H     0.26650   0.08080   0.96180   0.01267  Uiso   1.00
H443   H     0.31160   0.16460   0.99660   0.01267  Uiso   1.00
H444   H     0.14910   0.33400   0.93720   0.01267  Uiso   1.00
H445   H     0.05940   0.38440   0.94800   0.01267  Uiso   1.00
H446   H     0.06350   0.28180   0.95980   0.01267  Uiso   1.00
H447   H     0.09300   0.26440   0.89330   0.01267  Uiso   1.00
H448   H     0.11830   0.21990   0.85490   0.01267  Uiso   1.00
H449   H     0.21510   0.12930   0.86720   0.01267  Uiso   1.00
H450   H     0.25630   0.10610   0.90950   0.01267  Uiso   1.00
H451   H     0.11500   0.11380   0.80710   0.01267  Uiso   1.00
H452   H     0.13920   0.14260   0.76000   0.01267  Uiso   1.00
H453   H     0.18010   0.18600   0.76900   0.01267  Uiso   1.00
H454   H     0.27000   0.13940   0.04370   0.01267  Uiso   1.00
H455   H     0.23780   0.17510   0.08620   0.01267  Uiso   1.00
H456   H     0.15170   0.27990   0.06940   0.01267  Uiso   1.00
H457   H     0.12510   0.30760   0.01850   0.01267  Uiso   1.00
H458   H     0.22280   0.26800   0.15460   0.01267  Uiso   1.00
H459   H     0.17960   0.23990   0.18610   0.01267  Uiso   1.00
H460   H     0.14100   0.20310   0.15810   0.01267  Uiso   1.00
H461   H     0.63560   0.57510   0.51600   0.01267  Uiso   1.00
H462   H     0.73350   0.58080   0.53820   0.01267  Uiso   1.00
H463   H     0.68840   0.66460   0.50340   0.01267  Uiso   1.00
H464   H     0.85090   0.83400   0.56280   0.01267  Uiso   1.00
H465   H     0.94060   0.88440   0.55200   0.01267  Uiso   1.00
H466   H     0.93650   0.78180   0.54020   0.01267  Uiso   1.00
H467   H     0.90700   0.76440   0.60670   0.01267  Uiso   1.00
H468   H     0.88170   0.71990   0.64510   0.01267  Uiso   1.00
H469   H     0.78490   0.62930   0.63280   0.01267  Uiso   1.00
H470   H     0.74370   0.60610   0.59050   0.01267  Uiso   1.00
H471   H     0.88500   0.61380   0.69290   0.01267  Uiso   1.00
H472   H     0.86080   0.64260   0.74000   0.01267  Uiso   1.00
H473   H     0.81990   0.68600   0.73100   0.01267  Uiso   1.00
H474   H     0.73000   0.63940   0.45630   0.01267  Uiso   1.00
H475   H     0.76220   0.67510   0.41380   0.01267  Uiso   1.00
H476   H     0.84830   0.77990   0.43060   0.01267  Uiso   1.00
H477   H     0.87490   0.80760   0.48150   0.01267  Uiso   1.00
H478   H     0.77720   0.76800   0.34540   0.01267  Uiso   1.00
H479   H     0.82040   0.73990   0.31390   0.01267  Uiso   1.00
H480   H     0.85900   0.70310   0.34190   0.01267  Uiso   1.00
C1     C     0.96150   0.18290   0.53480   0.01267  Uiso   1.00
C2     C     0.00630   0.12480   0.64070   0.01267  Uiso   1.00
C3     C     0.99100   0.15490   0.62480   0.01267  Uiso   1.00
C4     C     0.98140   0.15590   0.58840   0.01267  Uiso   1.00
C5     C     0.96960   0.18340   0.57350   0.01267  Uiso   1.00
C6     C     0.96820   0.21300   0.59260   0.01267  Uiso   1.00
C7     C     0.97510   0.21590   0.62670   0.01267  Uiso   1.00
C8     C     0.98850   0.18680   0.64160   0.01267  Uiso   1.00
C9     C     0.95720   0.48180   0.83130   0.01267  Uiso   1.00
C10    C     0.93750   0.37410   0.89880   0.01267  Uiso   1.00
C11    C     0.94220   0.37490   0.83400   0.01267  Uiso   1.00
C12    C     0.94150   0.39300   0.86490   0.01267  Uiso   1.00
C13    C     0.94720   0.42780   0.86360   0.01267  Uiso   1.00
C14    C     0.95180   0.44450   0.83270   0.01267  Uiso   1.00
C15    C     0.95460   0.42520   0.80280   0.01267  Uiso   1.00
C16    C     0.95010   0.39140   0.80290   0.01267  Uiso   1.00
C17    C     0.95580   0.36920   0.77020   0.01267  Uiso   1.00
C18    C     0.93170   0.37300   0.74460   0.01267  Uiso   1.00
C19    C     0.89920   0.38960   0.74820   0.01267  Uiso   1.00
C20    C     0.87830   0.37570   0.72400   0.01267  Uiso   1.00
C21    C     0.89770   0.35010   0.70560   0.01267  Uiso   1.00
C22    C     0.88460   0.32940   0.67980   0.01267  Uiso   1.00
C23    C     0.90490   0.30640   0.66190   0.01267  Uiso   1.00
C24    C     0.89060   0.28380   0.63630   0.01267  Uiso   1.00
C25    C     0.91320   0.26090   0.62320   0.01267  Uiso   1.00
C26    C     0.94420   0.26900   0.64160   0.01267  Uiso   1.00
C27    C     0.84940   0.33420   0.66570   0.01267  Uiso   1.00
C28    C     0.84410   0.35850   0.64000   0.01267  Uiso   1.00
C29    C     0.81070   0.36840   0.63140   0.01267  Uiso   1.00
C30    C     0.78280   0.35400   0.64850   0.01267  Uiso   1.00
C31    C     0.78810   0.32970   0.67430   0.01267  Uiso   1.00
C32    C     0.82150   0.31980   0.68290   0.01267  Uiso   1.00
C33    C     0.97280   0.24860   0.64770   0.01267  Uiso   1.00
C34    C     0.00370   0.26080   0.66180   0.01267  Uiso   1.00
C35    C     0.03830   0.24800   0.65520   0.01267  Uiso   1.00
C36    C     0.06190   0.26510   0.67450   0.01267  Uiso   1.00
C37    C     0.04060   0.28900   0.69410   0.01267  Uiso   1.00
C38    C     0.05390   0.31090   0.71990   0.01267  Uiso   1.00
C39    C     0.03400   0.33200   0.74050   0.01267  Uiso   1.00
C40    C     0.04640   0.34800   0.77160   0.01267  Uiso   1.00
C41    C     0.01860   0.36250   0.78650   0.01267  Uiso   1.00
C42    C     0.98910   0.35600   0.76500   0.01267  Uiso   1.00
C43    C     0.14330   0.29290   0.75300   0.01267  Uiso   1.00
C44    C     0.16190   0.31850   0.73640   0.01267  Uiso   1.00
C45    C     0.14530   0.34150   0.71450   0.01267  Uiso   1.00
C46    C     0.11000   0.33880   0.70920   0.01267  Uiso   1.00
C47    C     0.09130   0.31320   0.72590   0.01267  Uiso   1.00
C48    C     0.10790   0.29020   0.74780   0.01267  Uiso   1.00
C49    C     0.53850   0.81710   0.03480   0.01267  Uiso   1.00
C50    C     0.49370   0.87520   0.14070   0.01267  Uiso   1.00
C51    C     0.50900   0.84510   0.12480   0.01267  Uiso   1.00
C52    C     0.51860   0.84410   0.08840   0.01267  Uiso   1.00
C53    C     0.53040   0.81660   0.07350   0.01267  Uiso   1.00
C54    C     0.53180   0.78700   0.09260   0.01267  Uiso   1.00
C55    C     0.52490   0.78410   0.12670   0.01267  Uiso   1.00
C56    C     0.51150   0.81320   0.14160   0.01267  Uiso   1.00
C57    C     0.54280   0.51820   0.33130   0.01267  Uiso   1.00
C58    C     0.56250   0.62590   0.39880   0.01267  Uiso   1.00
C59    C     0.55780   0.62510   0.33400   0.01267  Uiso   1.00
C60    C     0.55850   0.60700   0.36490   0.01267  Uiso   1.00
C61    C     0.55280   0.57220   0.36360   0.01267  Uiso   1.00
C62    C     0.54820   0.55550   0.33270   0.01267  Uiso   1.00
C63    C     0.54540   0.57480   0.30280   0.01267  Uiso   1.00
C64    C     0.54990   0.60860   0.30290   0.01267  Uiso   1.00
C65    C     0.54420   0.63080   0.27020   0.01267  Uiso   1.00
C66    C     0.56830   0.62700   0.24460   0.01267  Uiso   1.00
C67    C     0.60080   0.61040   0.24820   0.01267  Uiso   1.00
C68    C     0.62170   0.62430   0.22400   0.01267  Uiso   1.00
C69    C     0.60230   0.64990   0.20560   0.01267  Uiso   1.00
C70    C     0.61540   0.67060   0.17980   0.01267  Uiso   1.00
C71    C     0.59510   0.69360   0.16190   0.01267  Uiso   1.00
C72    C     0.60940   0.71620   0.13630   0.01267  Uiso   1.00
C73    C     0.58680   0.73910   0.12320   0.01267  Uiso   1.00
C74    C     0.55580   0.73100   0.14160   0.01267  Uiso   1.00
C75    C     0.65060   0.66580   0.16570   0.01267  Uiso   1.00
C76    C     0.65590   0.64150   0.14000   0.01267  Uiso   1.00
C77    C     0.68930   0.63160   0.13140   0.01267  Uiso   1.00
C78    C     0.71720   0.64600   0.14850   0.01267  Uiso   1.00
C79    C     0.71190   0.67030   0.17430   0.01267  Uiso   1.00
C80    C     0.67850   0.68020   0.18290   0.01267  Uiso   1.00
C81    C     0.52720   0.75140   0.14770   0.01267  Uiso   1.00
C82    C     0.49630   0.73920   0.16180   0.01267  Uiso   1.00
C83    C     0.46170   0.75200   0.15520   0.01267  Uiso   1.00
C84    C     0.43810   0.73490   0.17450   0.01267  Uiso   1.00
C85    C     0.45940   0.71100   0.19410   0.01267  Uiso   1.00
C86    C     0.44610   0.68910   0.21990   0.01267  Uiso   1.00
C87    C     0.46600   0.66800   0.24050   0.01267  Uiso   1.00
C88    C     0.45360   0.65200   0.27160   0.01267  Uiso   1.00
C89    C     0.48140   0.63750   0.28650   0.01267  Uiso   1.00
C90    C     0.51090   0.64400   0.26500   0.01267  Uiso   1.00
C91    C     0.35670   0.70710   0.25300   0.01267  Uiso   1.00
C92    C     0.33810   0.68150   0.23640   0.01267  Uiso   1.00
C93    C     0.35470   0.65850   0.21450   0.01267  Uiso   1.00
C94    C     0.39000   0.66120   0.20920   0.01267  Uiso   1.00
C95    C     0.40870   0.68680   0.22590   0.01267  Uiso   1.00
C96    C     0.39210   0.70980   0.24780   0.01267  Uiso   1.00
C97    C     0.03850   0.68290   0.96520   0.01267  Uiso   1.00
C98    C     0.99370   0.62480   0.85930   0.01267  Uiso   1.00
C99    C     0.00900   0.65490   0.87520   0.01267  Uiso   1.00
C100   C     0.01860   0.65590   0.91160   0.01267  Uiso   1.00
C101   C     0.03040   0.68340   0.92650   0.01267  Uiso   1.00
C102   C     0.03180   0.71300   0.90740   0.01267  Uiso   1.00
C103   C     0.02490   0.71590   0.87330   0.01267  Uiso   1.00
C104   C     0.01150   0.68680   0.85840   0.01267  Uiso   1.00
C105   C     0.04280   0.98180   0.66870   0.01267  Uiso   1.00
C106   C     0.06250   0.87410   0.60120   0.01267  Uiso   1.00
C107   C     0.05780   0.87490   0.66600   0.01267  Uiso   1.00
C108   C     0.05850   0.89300   0.63510   0.01267  Uiso   1.00
C109   C     0.05280   0.92780   0.63640   0.01267  Uiso   1.00
C110   C     0.04820   0.94450   0.66730   0.01267  Uiso   1.00
C111   C     0.04540   0.92520   0.69720   0.01267  Uiso   1.00
C112   C     0.04990   0.89140   0.69710   0.01267  Uiso   1.00
C113   C     0.04420   0.86920   0.72980   0.01267  Uiso   1.00
C114   C     0.06830   0.87300   0.75540   0.01267  Uiso   1.00
C115   C     0.10080   0.88960   0.75180   0.01267  Uiso   1.00
C116   C     0.12170   0.87570   0.77600   0.01267  Uiso   1.00
C117   C     0.10230   0.85010   0.79440   0.01267  Uiso   1.00
C118   C     0.11540   0.82940   0.82020   0.01267  Uiso   1.00
C119   C     0.09510   0.80640   0.83810   0.01267  Uiso   1.00
C120   C     0.10940   0.78380   0.86370   0.01267  Uiso   1.00
C121   C     0.08680   0.76090   0.87680   0.01267  Uiso   1.00
C122   C     0.05580   0.76900   0.85840   0.01267  Uiso   1.00
C123   C     0.15060   0.83420   0.83430   0.01267  Uiso   1.00
C124   C     0.15590   0.85850   0.86000   0.01267  Uiso   1.00
C125   C     0.18930   0.86840   0.86860   0.01267  Uiso   1.00
C126   C     0.21720   0.85400   0.85150   0.01267  Uiso   1.00
C127   C     0.21190   0.82970   0.82570   0.01267  Uiso   1.00
C128   C     0.17850   0.81980   0.81710   0.01267  Uiso   1.00
C129   C     0.02720   0.74860   0.85230   0.01267  Uiso   1.00
C130   C     0.99630   0.76080   0.83820   0.01267  Uiso   1.00
C131   C     0.96170   0.74800   0.84480   0.01267  Uiso   1.00
C132   C     0.93810   0.76510   0.82550   0.01267  Uiso   1.00
C133   C     0.95940   0.78900   0.80590   0.01267  Uiso   1.00
C134   C     0.94610   0.81090   0.78010   0.01267  Uiso   1.00
C135   C     0.96600   0.83200   0.75950   0.01267  Uiso   1.00
C136   C     0.95360   0.84800   0.72840   0.01267  Uiso   1.00
C137   C     0.98140   0.86250   0.71350   0.01267  Uiso   1.00
C138   C     0.01090   0.85600   0.73500   0.01267  Uiso   1.00
C139   C     0.85670   0.79290   0.74700   0.01267  Uiso   1.00
C140   C     0.83810   0.81850   0.76360   0.01267  Uiso   1.00
C141   C     0.85470   0.84150   0.78550   0.01267  Uiso   1.00
C142   C     0.89000   0.83880   0.79080   0.01267  Uiso   1.00
C143   C     0.90870   0.81320   0.77410   0.01267  Uiso   1.00
C144   C     0.89210   0.79020   0.75220   0.01267  Uiso   1.00
C145   C     0.46150   0.31710   0.46520   0.01267  Uiso   1.00
C146   C     0.50630   0.37520   0.35930   0.01267  Uiso   1.00
C147   C     0.49100   0.34510   0.37520   0.01267  Uiso   1.00
C148   C     0.48140   0.34410   0.41160   0.01267  Uiso   1.00
C149   C     0.46960   0.31660   0.42650   0.01267  Uiso   1.00
C150   C     0.46820   0.28700   0.40740   0.01267  Uiso   1.00
C151   C     0.47510   0.28410   0.37330   0.01267  Uiso   1.00
C152   C     0.48850   0.31320   0.35840   0.01267  Uiso   1.00
C153   C     0.45720   0.01820   0.16870   0.01267  Uiso   1.00
C154   C     0.43750   0.12590   0.10120   0.01267  Uiso   1.00
C155   C     0.44220   0.12510   0.16600   0.01267  Uiso   1.00
C156   C     0.44150   0.10700   0.13510   0.01267  Uiso   1.00
C157   C     0.44720   0.07220   0.13640   0.01267  Uiso   1.00
C158   C     0.45180   0.05550   0.16730   0.01267  Uiso   1.00
C159   C     0.45460   0.07480   0.19720   0.01267  Uiso   1.00
C160   C     0.45010   0.10860   0.19710   0.01267  Uiso   1.00
C161   C     0.45580   0.13080   0.22980   0.01267  Uiso   1.00
C162   C     0.43170   0.12700   0.25540   0.01267  Uiso   1.00
C163   C     0.39920   0.11040   0.25180   0.01267  Uiso   1.00
C164   C     0.37830   0.12430   0.27600   0.01267  Uiso   1.00
C165   C     0.39770   0.14990   0.29440   0.01267  Uiso   1.00
C166   C     0.38460   0.17060   0.32020   0.01267  Uiso   1.00
C167   C     0.40490   0.19360   0.33810   0.01267  Uiso   1.00
C168   C     0.39060   0.21620   0.36370   0.01267  Uiso   1.00
C169   C     0.41320   0.23910   0.37680   0.01267  Uiso   1.00
C170   C     0.44420   0.23100   0.35840   0.01267  Uiso   1.00
C171   C     0.34940   0.16580   0.33430   0.01267  Uiso   1.00
C172   C     0.34410   0.14150   0.36000   0.01267  Uiso   1.00
C173   C     0.31070   0.13160   0.36860   0.01267  Uiso   1.00
C174   C     0.28280   0.14600   0.35150   0.01267  Uiso   1.00
C175   C     0.28810   0.17030   0.32570   0.01267  Uiso   1.00
C176   C     0.32150   0.18020   0.31710   0.01267  Uiso   1.00
C177   C     0.47280   0.25140   0.35230   0.01267  Uiso   1.00
C178   C     0.50370   0.23920   0.33820   0.01267  Uiso   1.00
C179   C     0.53830   0.25200   0.34480   0.01267  Uiso   1.00
C180   C     0.56190   0.23490   0.32550   0.01267  Uiso   1.00
C181   C     0.54060   0.21100   0.30590   0.01267  Uiso   1.00
C182   C     0.55390   0.18910   0.28010   0.01267  Uiso   1.00
C183   C     0.53400   0.16800   0.25950   0.01267  Uiso   1.00
C184   C     0.54640   0.15200   0.22840   0.01267  Uiso   1.00
C185   C     0.51860   0.13750   0.21350   0.01267  Uiso   1.00
C186   C     0.48910   0.14400   0.23500   0.01267  Uiso   1.00
C187   C     0.64330   0.20710   0.24700   0.01267  Uiso   1.00
C188   C     0.66190   0.18150   0.26360   0.01267  Uiso   1.00
C189   C     0.64530   0.15850   0.28550   0.01267  Uiso   1.00
C190   C     0.61000   0.16120   0.29080   0.01267  Uiso   1.00
C191   C     0.59130   0.18680   0.27410   0.01267  Uiso   1.00
C192   C     0.60790   0.20980   0.25220   0.01267  Uiso   1.00
C193   C     0.53480   0.96150   0.18290   0.01267  Uiso   1.00
C194   C     0.64070   0.00630   0.12480   0.01267  Uiso   1.00
C195   C     0.62480   0.99100   0.15490   0.01267  Uiso   1.00
C196   C     0.58840   0.98140   0.15590   0.01267  Uiso   1.00
C197   C     0.57350   0.96960   0.18340   0.01267  Uiso   1.00
C198   C     0.59260   0.96820   0.21300   0.01267  Uiso   1.00
C199   C     0.62670   0.97510   0.21590   0.01267  Uiso   1.00
C200   C     0.64160   0.98850   0.18680   0.01267  Uiso   1.00
C201   C     0.83130   0.95720   0.48180   0.01267  Uiso   1.00
C202   C     0.89880   0.93750   0.37410   0.01267  Uiso   1.00
C203   C     0.83400   0.94220   0.37490   0.01267  Uiso   1.00
C204   C     0.86490   0.94150   0.39300   0.01267  Uiso   1.00
C205   C     0.86360   0.94720   0.42780   0.01267  Uiso   1.00
C206   C     0.83270   0.95180   0.44450   0.01267  Uiso   1.00
C207   C     0.80280   0.95460   0.42520   0.01267  Uiso   1.00
C208   C     0.80290   0.95010   0.39140   0.01267  Uiso   1.00
C209   C     0.77020   0.95580   0.36920   0.01267  Uiso   1.00
C210   C     0.74460   0.93170   0.37300   0.01267  Uiso   1.00
C211   C     0.74820   0.89920   0.38960   0.01267  Uiso   1.00
C212   C     0.72400   0.87830   0.37570   0.01267  Uiso   1.00
C213   C     0.70560   0.89770   0.35010   0.01267  Uiso   1.00
C214   C     0.67980   0.88460   0.32940   0.01267  Uiso   1.00
C215   C     0.66190   0.90490   0.30640   0.01267  Uiso   1.00
C216   C     0.63630   0.89060   0.28380   0.01267  Uiso   1.00
C217   C     0.62320   0.91320   0.26090   0.01267  Uiso   1.00
C218   C     0.64160   0.94420   0.26900   0.01267  Uiso   1.00
C219   C     0.66570   0.84940   0.33420   0.01267  Uiso   1.00
C220   C     0.64000   0.84410   0.35850   0.01267  Uiso   1.00
C221   C     0.63140   0.81070   0.36840   0.01267  Uiso   1.00
C222   C     0.64850   0.78280   0.35400   0.01267  Uiso   1.00
C223   C     0.67430   0.78810   0.32970   0.01267  Uiso   1.00
C224   C     0.68290   0.82150   0.31980   0.01267  Uiso   1.00
C225   C     0.64770   0.97280   0.24860   0.01267  Uiso   1.00
C226   C     0.66180   0.00370   0.26080   0.01267  Uiso   1.00
C227   C     0.65520   0.03830   0.24800   0.01267  Uiso   1.00
C228   C     0.67450   0.06190   0.26510   0.01267  Uiso   1.00
C229   C     0.69410   0.04060   0.28900   0.01267  Uiso   1.00
C230   C     0.71990   0.05390   0.31090   0.01267  Uiso   1.00
C231   C     0.74050   0.03400   0.33200   0.01267  Uiso   1.00
C232   C     0.77160   0.04640   0.34800   0.01267  Uiso   1.00
C233   C     0.78650   0.01860   0.36250   0.01267  Uiso   1.00
C234   C     0.76500   0.98910   0.35600   0.01267  Uiso   1.00
C235   C     0.75300   0.14330   0.29290   0.01267  Uiso   1.00
C236   C     0.73640   0.16190   0.31850   0.01267  Uiso   1.00
C237   C     0.71450   0.14530   0.34150   0.01267  Uiso   1.00
C238   C     0.70920   0.11000   0.33880   0.01267  Uiso   1.00
C239   C     0.72590   0.09130   0.31320   0.01267  Uiso   1.00
C240   C     0.74780   0.10790   0.29020   0.01267  Uiso   1.00
C241   C     0.03480   0.53850   0.81710   0.01267  Uiso   1.00
C242   C     0.14070   0.49370   0.87520   0.01267  Uiso   1.00
C243   C     0.12480   0.50900   0.84510   0.01267  Uiso   1.00
C244   C     0.08840   0.51860   0.84410   0.01267  Uiso   1.00
C245   C     0.07350   0.53040   0.81660   0.01267  Uiso   1.00
C246   C     0.09260   0.53180   0.78700   0.01267  Uiso   1.00
C247   C     0.12670   0.52490   0.78410   0.01267  Uiso   1.00
C248   C     0.14160   0.51150   0.81320   0.01267  Uiso   1.00
C249   C     0.33130   0.54280   0.51820   0.01267  Uiso   1.00
C250   C     0.39880   0.56250   0.62590   0.01267  Uiso   1.00
C251   C     0.33400   0.55780   0.62510   0.01267  Uiso   1.00
C252   C     0.36490   0.55850   0.60700   0.01267  Uiso   1.00
C253   C     0.36360   0.55280   0.57220   0.01267  Uiso   1.00
C254   C     0.33270   0.54820   0.55550   0.01267  Uiso   1.00
C255   C     0.30280   0.54540   0.57480   0.01267  Uiso   1.00
C256   C     0.30290   0.54990   0.60860   0.01267  Uiso   1.00
C257   C     0.27020   0.54420   0.63080   0.01267  Uiso   1.00
C258   C     0.24460   0.56830   0.62700   0.01267  Uiso   1.00
C259   C     0.24820   0.60080   0.61040   0.01267  Uiso   1.00
C260   C     0.22400   0.62170   0.62430   0.01267  Uiso   1.00
C261   C     0.20560   0.60230   0.64990   0.01267  Uiso   1.00
C262   C     0.17980   0.61540   0.67060   0.01267  Uiso   1.00
C263   C     0.16190   0.59510   0.69360   0.01267  Uiso   1.00
C264   C     0.13630   0.60940   0.71620   0.01267  Uiso   1.00
C265   C     0.12320   0.58680   0.73910   0.01267  Uiso   1.00
C266   C     0.14160   0.55580   0.73100   0.01267  Uiso   1.00
C267   C     0.16570   0.65060   0.66580   0.01267  Uiso   1.00
C268   C     0.14000   0.65590   0.64150   0.01267  Uiso   1.00
C269   C     0.13140   0.68930   0.63160   0.01267  Uiso   1.00
C270   C     0.14850   0.71720   0.64600   0.01267  Uiso   1.00
C271   C     0.17430   0.71190   0.67030   0.01267  Uiso   1.00
C272   C     0.18290   0.67850   0.68020   0.01267  Uiso   1.00
C273   C     0.14770   0.52720   0.75140   0.01267  Uiso   1.00
C274   C     0.16180   0.49630   0.73920   0.01267  Uiso   1.00
C275   C     0.15520   0.46170   0.75200   0.01267  Uiso   1.00
C276   C     0.17450   0.43810   0.73490   0.01267  Uiso   1.00
C277   C     0.19410   0.45940   0.71100   0.01267  Uiso   1.00
C278   C     0.21990   0.44610   0.68910   0.01267  Uiso   1.00
C279   C     0.24050   0.46600   0.66800   0.01267  Uiso   1.00
C280   C     0.27160   0.45360   0.65200   0.01267  Uiso   1.00
C281   C     0.28650   0.48140   0.63750   0.01267  Uiso   1.00
C282   C     0.26500   0.51090   0.64400   0.01267  Uiso   1.00
C283   C     0.25300   0.35670   0.70710   0.01267  Uiso   1.00
C284   C     0.23640   0.33810   0.68150   0.01267  Uiso   1.00
C285   C     0.21450   0.35470   0.65850   0.01267  Uiso   1.00
C286   C     0.20920   0.39000   0.66120   0.01267  Uiso   1.00
C287   C     0.22590   0.40870   0.68680   0.01267  Uiso   1.00
C288   C     0.24780   0.39210   0.70980   0.01267  Uiso   1.00
C289   C     0.96520   0.03850   0.68290   0.01267  Uiso   1.00
C290   C     0.85930   0.99370   0.62480   0.01267  Uiso   1.00
C291   C     0.87520   0.00900   0.65490   0.01267  Uiso   1.00
C292   C     0.91160   0.01860   0.65590   0.01267  Uiso   1.00
C293   C     0.92650   0.03040   0.68340   0.01267  Uiso   1.00
C294   C     0.90740   0.03180   0.71300   0.01267  Uiso   1.00
C295   C     0.87330   0.02490   0.71590   0.01267  Uiso   1.00
C296   C     0.85840   0.01150   0.68680   0.01267  Uiso   1.00
C297   C     0.66870   0.04280   0.98180   0.01267  Uiso   1.00
C298   C     0.60120   0.06250   0.87410   0.01267  Uiso   1.00
C299   C     0.66600   0.05780   0.87490   0.01267  Uiso   1.00
C300   C     0.63510   0.05850   0.89300   0.01267  Uiso   1.00
C301   C     0.63640   0.05280   0.92780   0.01267  Uiso   1.00
C302   C     0.66730   0.04820   0.94450   0.01267  Uiso   1.00
C303   C     0.69720   0.04540   0.92520   0.01267  Uiso   1.00
C304   C     0.69710   0.04990   0.89140   0.01267  Uiso   1.00
C305   C     0.72980   0.04420   0.86920   0.01267  Uiso   1.00
C306   C     0.75540   0.06830   0.87300   0.01267  Uiso   1.00
C307   C     0.75180   0.10080   0.88960   0.01267  Uiso   1.00
C308   C     0.77600   0.12170   0.87570   0.01267  Uiso   1.00
C309   C     0.79440   0.10230   0.85010   0.01267  Uiso   1.00
C310   C     0.82020   0.11540   0.82940   0.01267  Uiso   1.00
C311   C     0.83810   0.09510   0.80640   0.01267  Uiso   1.00
C312   C     0.86370   0.10940   0.78380   0.01267  Uiso   1.00
C313   C     0.87680   0.08680   0.76090   0.01267  Uiso   1.00
C314   C     0.85840   0.05580   0.76900   0.01267  Uiso   1.00
C315   C     0.83430   0.15060   0.83420   0.01267  Uiso   1.00
C316   C     0.86000   0.15590   0.85850   0.01267  Uiso   1.00
C317   C     0.86860   0.18930   0.86840   0.01267  Uiso   1.00
C318   C     0.85150   0.21720   0.85400   0.01267  Uiso   1.00
C319   C     0.82570   0.21190   0.82970   0.01267  Uiso   1.00
C320   C     0.81710   0.17850   0.81980   0.01267  Uiso   1.00
C321   C     0.85230   0.02720   0.74860   0.01267  Uiso   1.00
C322   C     0.83820   0.99630   0.76080   0.01267  Uiso   1.00
C323   C     0.84480   0.96170   0.74800   0.01267  Uiso   1.00
C324   C     0.82550   0.93810   0.76510   0.01267  Uiso   1.00
C325   C     0.80590   0.95940   0.78900   0.01267  Uiso   1.00
C326   C     0.78010   0.94610   0.81090   0.01267  Uiso   1.00
C327   C     0.75950   0.96600   0.83200   0.01267  Uiso   1.00
C328   C     0.72840   0.95360   0.84800   0.01267  Uiso   1.00
C329   C     0.71350   0.98140   0.86250   0.01267  Uiso   1.00
C330   C     0.73500   0.01090   0.85600   0.01267  Uiso   1.00
C331   C     0.74700   0.85670   0.79290   0.01267  Uiso   1.00
C332   C     0.76360   0.83810   0.81850   0.01267  Uiso   1.00
C333   C     0.78550   0.85470   0.84150   0.01267  Uiso   1.00
C334   C     0.79080   0.89000   0.83880   0.01267  Uiso   1.00
C335   C     0.77410   0.90870   0.81320   0.01267  Uiso   1.00
C336   C     0.75220   0.89210   0.79020   0.01267  Uiso   1.00
C337   C     0.46520   0.46150   0.31710   0.01267  Uiso   1.00
C338   C     0.35930   0.50630   0.37520   0.01267  Uiso   1.00
C339   C     0.37520   0.49100   0.34510   0.01267  Uiso   1.00
C340   C     0.41160   0.48140   0.34410   0.01267  Uiso   1.00
C341   C     0.42650   0.46960   0.31660   0.01267  Uiso   1.00
C342   C     0.40740   0.46820   0.28700   0.01267  Uiso   1.00
C343   C     0.37330   0.47510   0.28410   0.01267  Uiso   1.00
C344   C     0.35840   0.48850   0.31320   0.01267  Uiso   1.00
C345   C     0.16870   0.45720   0.01820   0.01267  Uiso   1.00
C346   C     0.10120   0.43750   0.12590   0.01267  Uiso   1.00
C347   C     0.16600   0.44220   0.12510   0.01267  Uiso   1.00
C348   C     0.13510   0.44150   0.10700   0.01267  Uiso   1.00
C349   C     0.13640   0.44720   0.07220   0.01267  Uiso   1.00
C350   C     0.16730   0.45180   0.05550   0.01267  Uiso   1.00
C351   C     0.19720   0.45460   0.07480   0.01267  Uiso   1.00
C352   C     0.19710   0.45010   0.10860   0.01267  Uiso   1.00
C353   C     0.22980   0.45580   0.13080   0.01267  Uiso   1.00
C354   C     0.25540   0.43170   0.12700   0.01267  Uiso   1.00
C355   C     0.25180   0.39920   0.11040   0.01267  Uiso   1.00
C356   C     0.27600   0.37830   0.12430   0.01267  Uiso   1.00
C357   C     0.29440   0.39770   0.14990   0.01267  Uiso   1.00
C358   C     0.32020   0.38460   0.17060   0.01267  Uiso   1.00
C359   C     0.33810   0.40490   0.19360   0.01267  Uiso   1.00
C360   C     0.36370   0.39060   0.21620   0.01267  Uiso   1.00
C361   C     0.37680   0.41320   0.23910   0.01267  Uiso   1.00
C362   C     0.35840   0.44420   0.23100   0.01267  Uiso   1.00
C363   C     0.33430   0.34940   0.16580   0.01267  Uiso   1.00
C364   C     0.36000   0.34410   0.14150   0.01267  Uiso   1.00
C365   C     0.36860   0.31070   0.13160   0.01267  Uiso   1.00
C366   C     0.35150   0.28280   0.14600   0.01267  Uiso   1.00
C367   C     0.32570   0.28810   0.17030   0.01267  Uiso   1.00
C368   C     0.31710   0.32150   0.18020   0.01267  Uiso   1.00
C369   C     0.35230   0.47280   0.25140   0.01267  Uiso   1.00
C370   C     0.33820   0.50370   0.23920   0.01267  Uiso   1.00
C371   C     0.34480   0.53830   0.25200   0.01267  Uiso   1.00
C372   C     0.32550   0.56190   0.23490   0.01267  Uiso   1.00
C373   C     0.30590   0.54060   0.21100   0.01267  Uiso   1.00
C374   C     0.28010   0.55390   0.18910   0.01267  Uiso   1.00
C375   C     0.25950   0.53400   0.16800   0.01267  Uiso   1.00
C376   C     0.22840   0.54640   0.15200   0.01267  Uiso   1.00
C377   C     0.21350   0.51860   0.13750   0.01267  Uiso   1.00
C378   C     0.23500   0.48910   0.14400   0.01267  Uiso   1.00
C379   C     0.24700   0.64330   0.20710   0.01267  Uiso   1.00
C380   C     0.26360   0.66190   0.18150   0.01267  Uiso   1.00
C381   C     0.28550   0.64530   0.15850   0.01267  Uiso   1.00
C382   C     0.29080   0.61000   0.16120   0.01267  Uiso   1.00
C383   C     0.27410   0.59130   0.18680   0.01267  Uiso   1.00
C384   C     0.25220   0.60790   0.20980   0.01267  Uiso   1.00
C385   C     0.18290   0.53480   0.96150   0.01267  Uiso   1.00
C386   C     0.12480   0.64070   0.00630   0.01267  Uiso   1.00
C387   C     0.15490   0.62480   0.99100   0.01267  Uiso   1.00
C388   C     0.15590   0.58840   0.98140   0.01267  Uiso   1.00
C389   C     0.18340   0.57350   0.96960   0.01267  Uiso   1.00
C390   C     0.21300   0.59260   0.96820   0.01267  Uiso   1.00
C391   C     0.21590   0.62670   0.97510   0.01267  Uiso   1.00
C392   C     0.18680   0.64160   0.98850   0.01267  Uiso   1.00
C393   C     0.48180   0.83130   0.95720   0.01267  Uiso   1.00
C394   C     0.37410   0.89880   0.93750   0.01267  Uiso   1.00
C395   C     0.37490   0.83400   0.94220   0.01267  Uiso   1.00
C396   C     0.39300   0.86490   0.94150   0.01267  Uiso   1.00
C397   C     0.42780   0.86360   0.94720   0.01267  Uiso   1.00
C398   C     0.44450   0.83270   0.95180   0.01267  Uiso   1.00
C399   C     0.42520   0.80280   0.95460   0.01267  Uiso   1.00
C400   C     0.39140   0.80290   0.95010   0.01267  Uiso   1.00
C401   C     0.36920   0.77020   0.95580   0.01267  Uiso   1.00
C402   C     0.37300   0.74460   0.93170   0.01267  Uiso   1.00
C403   C     0.38960   0.74820   0.89920   0.01267  Uiso   1.00
C404   C     0.37570   0.72400   0.87830   0.01267  Uiso   1.00
C405   C     0.35010   0.70560   0.89770   0.01267  Uiso   1.00
C406   C     0.32940   0.67980   0.88460   0.01267  Uiso   1.00
C407   C     0.30640   0.66190   0.90490   0.01267  Uiso   1.00
C408   C     0.28380   0.63630   0.89060   0.01267  Uiso   1.00
C409   C     0.26090   0.62320   0.91320   0.01267  Uiso   1.00
C410   C     0.26900   0.64160   0.94420   0.01267  Uiso   1.00
C411   C     0.33420   0.66570   0.84940   0.01267  Uiso   1.00
C412   C     0.35850   0.64000   0.84410   0.01267  Uiso   1.00
C413   C     0.36840   0.63140   0.81070   0.01267  Uiso   1.00
C414   C     0.35400   0.64850   0.78280   0.01267  Uiso   1.00
C415   C     0.32970   0.67430   0.78810   0.01267  Uiso   1.00
C416   C     0.31980   0.68290   0.82150   0.01267  Uiso   1.00
C417   C     0.24860   0.64770   0.97280   0.01267  Uiso   1.00
C418   C     0.26080   0.66180   0.00370   0.01267  Uiso   1.00
C419   C     0.24800   0.65520   0.03830   0.01267  Uiso   1.00
C420   C     0.26510   0.67450   0.06190   0.01267  Uiso   1.00
C421   C     0.28900   0.69410   0.04060   0.01267  Uiso   1.00
C422   C     0.31090   0.71990   0.05390   0.01267  Uiso   1.00
C423   C     0.33200   0.74050   0.03400   0.01267  Uiso   1.00
C424   C     0.34800   0.77160   0.04640   0.01267  Uiso   1.00
C425   C     0.36250   0.78650   0.01860   0.01267  Uiso   1.00
C426   C     0.35600   0.76500   0.98910   0.01267  Uiso   1.00
C427   C     0.29290   0.75300   0.14330   0.01267  Uiso   1.00
C428   C     0.31850   0.73640   0.16190   0.01267  Uiso   1.00
C429   C     0.34150   0.71450   0.14530   0.01267  Uiso   1.00
C430   C     0.33880   0.70920   0.11000   0.01267  Uiso   1.00
C431   C     0.31320   0.72590   0.09130   0.01267  Uiso   1.00
C432   C     0.29020   0.74780   0.10790   0.01267  Uiso   1.00
C433   C     0.81710   0.03480   0.53850   0.01267  Uiso   1.00
C434   C     0.87520   0.14070   0.49370   0.01267  Uiso   1.00
C435   C     0.84510   0.12480   0.50900   0.01267  Uiso   1.00
C436   C     0.84410   0.08840   0.51860   0.01267  Uiso   1.00
C437   C     0.81660   0.07350   0.53040   0.01267  Uiso   1.00
C438   C     0.78700   0.09260   0.53180   0.01267  Uiso   1.00
C439   C     0.78410   0.12670   0.52490   0.01267  Uiso   1.00
C440   C     0.81320   0.14160   0.51150   0.01267  Uiso   1.00
C441   C     0.51820   0.33130   0.54280   0.01267  Uiso   1.00
C442   C     0.62590   0.39880   0.56250   0.01267  Uiso   1.00
C443   C     0.62510   0.33400   0.55780   0.01267  Uiso   1.00
C444   C     0.60700   0.36490   0.55850   0.01267  Uiso   1.00
C445   C     0.57220   0.36360   0.55280   0.01267  Uiso   1.00
C446   C     0.55550   0.33270   0.54820   0.01267  Uiso   1.00
C447   C     0.57480   0.30280   0.54540   0.01267  Uiso   1.00
C448   C     0.60860   0.30290   0.54990   0.01267  Uiso   1.00
C449   C     0.63080   0.27020   0.54420   0.01267  Uiso   1.00
C450   C     0.62700   0.24460   0.56830   0.01267  Uiso   1.00
C451   C     0.61040   0.24820   0.60080   0.01267  Uiso   1.00
C452   C     0.62430   0.22400   0.62170   0.01267  Uiso   1.00
C453   C     0.64990   0.20560   0.60230   0.01267  Uiso   1.00
C454   C     0.67060   0.17980   0.61540   0.01267  Uiso   1.00
C455   C     0.69360   0.16190   0.59510   0.01267  Uiso   1.00
C456   C     0.71620   0.13630   0.60940   0.01267  Uiso   1.00
C457   C     0.73910   0.12320   0.58680   0.01267  Uiso   1.00
C458   C     0.73100   0.14160   0.55580   0.01267  Uiso   1.00
C459   C     0.66580   0.16570   0.65060   0.01267  Uiso   1.00
C460   C     0.64150   0.14000   0.65590   0.01267  Uiso   1.00
C461   C     0.63160   0.13140   0.68930   0.01267  Uiso   1.00
C462   C     0.64600   0.14850   0.71720   0.01267  Uiso   1.00
C463   C     0.67030   0.17430   0.71190   0.01267  Uiso   1.00
C464   C     0.68020   0.18290   0.67850   0.01267  Uiso   1.00
C465   C     0.75140   0.14770   0.52720   0.01267  Uiso   1.00
C466   C     0.73920   0.16180   0.49630   0.01267  Uiso   1.00
C467   C     0.75200   0.15520   0.46170   0.01267  Uiso   1.00
C468   C     0.73490   0.17450   0.43810   0.01267  Uiso   1.00
C469   C     0.71100   0.19410   0.45940   0.01267  Uiso   1.00
C470   C     0.68910   0.21990   0.44610   0.01267  Uiso   1.00
C471   C     0.66800   0.24050   0.46600   0.01267  Uiso   1.00
C472   C     0.65200   0.27160   0.45360   0.01267  Uiso   1.00
C473   C     0.63750   0.28650   0.48140   0.01267  Uiso   1.00
C474   C     0.64400   0.26500   0.51090   0.01267  Uiso   1.00
C475   C     0.70710   0.25300   0.35670   0.01267  Uiso   1.00
C476   C     0.68150   0.23640   0.33810   0.01267  Uiso   1.00
C477   C     0.65850   0.21450   0.35470   0.01267  Uiso   1.00
C478   C     0.66120   0.20920   0.39000   0.01267  Uiso   1.00
C479   C     0.68680   0.22590   0.40870   0.01267  Uiso   1.00
C480   C     0.70980   0.24780   0.39210   0.01267  Uiso   1.00
C481   C     0.68290   0.96520   0.03850   0.01267  Uiso   1.00
C482   C     0.62480   0.85930   0.99370   0.01267  Uiso   1.00
C483   C     0.65490   0.87520   0.00900   0.01267  Uiso   1.00
C484   C     0.65590   0.91160   0.01860   0.01267  Uiso   1.00
C485   C     0.68340   0.92650   0.03040   0.01267  Uiso   1.00
C486   C     0.71300   0.90740   0.03180   0.01267  Uiso   1.00
C487   C     0.71590   0.87330   0.02490   0.01267  Uiso   1.00
C488   C     0.68680   0.85840   0.01150   0.01267  Uiso   1.00
C489   C     0.98180   0.66870   0.04280   0.01267  Uiso   1.00
C490   C     0.87410   0.60120   0.06250   0.01267  Uiso   1.00
C491   C     0.87490   0.66600   0.05780   0.01267  Uiso   1.00
C492   C     0.89300   0.63510   0.05850   0.01267  Uiso   1.00
C493   C     0.92780   0.63640   0.05280   0.01267  Uiso   1.00
C494   C     0.94450   0.66730   0.04820   0.01267  Uiso   1.00
C495   C     0.92520   0.69720   0.04540   0.01267  Uiso   1.00
C496   C     0.89140   0.69710   0.04990   0.01267  Uiso   1.00
C497   C     0.86920   0.72980   0.04420   0.01267  Uiso   1.00
C498   C     0.87300   0.75540   0.06830   0.01267  Uiso   1.00
C499   C     0.88960   0.75180   0.10080   0.01267  Uiso   1.00
C500   C     0.87570   0.77600   0.12170   0.01267  Uiso   1.00
C501   C     0.85010   0.79440   0.10230   0.01267  Uiso   1.00
C502   C     0.82940   0.82020   0.11540   0.01267  Uiso   1.00
C503   C     0.80640   0.83810   0.09510   0.01267  Uiso   1.00
C504   C     0.78380   0.86370   0.10940   0.01267  Uiso   1.00
C505   C     0.76090   0.87680   0.08680   0.01267  Uiso   1.00
C506   C     0.76900   0.85840   0.05580   0.01267  Uiso   1.00
C507   C     0.83420   0.83430   0.15060   0.01267  Uiso   1.00
C508   C     0.85850   0.86000   0.15590   0.01267  Uiso   1.00
C509   C     0.86840   0.86860   0.18930   0.01267  Uiso   1.00
C510   C     0.85400   0.85150   0.21720   0.01267  Uiso   1.00
C511   C     0.82970   0.82570   0.21190   0.01267  Uiso   1.00
C512   C     0.81980   0.81710   0.17850   0.01267  Uiso   1.00
C513   C     0.74860   0.85230   0.02720   0.01267  Uiso   1.00
C514   C     0.76080   0.83820   0.99630   0.01267  Uiso   1.00
C515   C     0.74800   0.84480   0.96170   0.01267  Uiso   1.00
C516   C     0.76510   0.82550   0.93810   0.01267  Uiso   1.00
C517   C     0.78900   0.80590   0.95940   0.01267  Uiso   1.00
C518   C     0.81090   0.78010   0.94610   0.01267  Uiso   1.00
C519   C     0.83200   0.75950   0.96600   0.01267  Uiso   1.00
C520   C     0.84800   0.72840   0.95360   0.01267  Uiso   1.00
C521   C     0.86250   0.71350   0.98140   0.01267  Uiso   1.00
C522   C     0.85600   0.73500   0.01090   0.01267  Uiso   1.00
C523   C     0.79290   0.74700   0.85670   0.01267  Uiso   1.00
C524   C     0.81850   0.76360   0.83810   0.01267  Uiso   1.00
C525   C     0.84150   0.78550   0.85470   0.01267  Uiso   1.00
C526   C     0.83880   0.79080   0.89000   0.01267  Uiso   1.00
C527   C     0.81320   0.77410   0.90870   0.01267  Uiso   1.00
C528   C     0.79020   0.75220   0.89210   0.01267  Uiso   1.00
C529   C     0.31710   0.46520   0.46150   0.01267  Uiso   1.00
C530   C     0.37520   0.35930   0.50630   0.01267  Uiso   1.00
C531   C     0.34510   0.37520   0.49100   0.01267  Uiso   1.00
C532   C     0.34410   0.41160   0.48140   0.01267  Uiso   1.00
C533   C     0.31660   0.42650   0.46960   0.01267  Uiso   1.00
C534   C     0.28700   0.40740   0.46820   0.01267  Uiso   1.00
C535   C     0.28410   0.37330   0.47510   0.01267  Uiso   1.00
C536   C     0.31320   0.35840   0.48850   0.01267  Uiso   1.00
C537   C     0.01820   0.16870   0.45720   0.01267  Uiso   1.00
C538   C     0.12590   0.10120   0.43750   0.01267  Uiso   1.00
C539   C     0.12510   0.16600   0.44220   0.01267  Uiso   1.00
C540   C     0.10700   0.13510   0.44150   0.01267  Uiso   1.00
C541   C     0.07220   0.13640   0.44720   0.01267  Uiso   1.00
C542   C     0.05550   0.16730   0.45180   0.01267  Uiso   1.00
C543   C     0.07480   0.19720   0.45460   0.01267  Uiso   1.00
C544   C     0.10860   0.19710   0.45010   0.01267  Uiso   1.00
C545   C     0.13080   0.22980   0.45580   0.01267  Uiso   1.00
C546   C     0.12700   0.25540   0.43170   0.01267  Uiso   1.00
C547   C     0.11040   0.25180   0.39920   0.01267  Uiso   1.00
C548   C     0.12430   0.27600   0.37830   0.01267  Uiso   1.00
C549   C     0.14990   0.29440   0.39770   0.01267  Uiso   1.00
C550   C     0.17060   0.32020   0.38460   0.01267  Uiso   1.00
C551   C     0.19360   0.33810   0.40490   0.01267  Uiso   1.00
C552   C     0.21620   0.36370   0.39060   0.01267  Uiso   1.00
C553   C     0.23910   0.37680   0.41320   0.01267  Uiso   1.00
C554   C     0.23100   0.35840   0.44420   0.01267  Uiso   1.00
C555   C     0.16580   0.33430   0.34940   0.01267  Uiso   1.00
C556   C     0.14150   0.36000   0.34410   0.01267  Uiso   1.00
C557   C     0.13160   0.36860   0.31070   0.01267  Uiso   1.00
C558   C     0.14600   0.35150   0.28280   0.01267  Uiso   1.00
C559   C     0.17030   0.32570   0.28810   0.01267  Uiso   1.00
C560   C     0.18020   0.31710   0.32150   0.01267  Uiso   1.00
C561   C     0.25140   0.35230   0.47280   0.01267  Uiso   1.00
C562   C     0.23920   0.33820   0.50370   0.01267  Uiso   1.00
C563   C     0.25200   0.34480   0.53830   0.01267  Uiso   1.00
C564   C     0.23490   0.32550   0.56190   0.01267  Uiso   1.00
C565   C     0.21100   0.30590   0.54060   0.01267  Uiso   1.00
C566   C     0.18910   0.28010   0.55390   0.01267  Uiso   1.00
C567   C     0.16800   0.25950   0.53400   0.01267  Uiso   1.00
C568   C     0.15200   0.22840   0.54640   0.01267  Uiso   1.00
C569   C     0.13750   0.21350   0.51860   0.01267  Uiso   1.00
C570   C     0.14400   0.23500   0.48910   0.01267  Uiso   1.00
C571   C     0.20710   0.24700   0.64330   0.01267  Uiso   1.00
C572   C     0.18150   0.26360   0.66190   0.01267  Uiso   1.00
C573   C     0.15850   0.28550   0.64530   0.01267  Uiso   1.00
C574   C     0.16120   0.29080   0.61000   0.01267  Uiso   1.00
C575   C     0.18680   0.27410   0.59130   0.01267  Uiso   1.00
C576   C     0.20980   0.25220   0.60790   0.01267  Uiso   1.00
C577   C     0.03850   0.81710   0.46520   0.01267  Uiso   1.00
C578   C     0.99370   0.87520   0.35930   0.01267  Uiso   1.00
C579   C     0.00900   0.84510   0.37520   0.01267  Uiso   1.00
C580   C     0.01860   0.84410   0.41160   0.01267  Uiso   1.00
C581   C     0.03040   0.81660   0.42650   0.01267  Uiso   1.00
C582   C     0.03180   0.78700   0.40740   0.01267  Uiso   1.00
C583   C     0.02490   0.78410   0.37330   0.01267  Uiso   1.00
C584   C     0.01150   0.81320   0.35840   0.01267  Uiso   1.00
C585   C     0.04280   0.51820   0.16870   0.01267  Uiso   1.00
C586   C     0.06250   0.62590   0.10120   0.01267  Uiso   1.00
C587   C     0.05780   0.62510   0.16600   0.01267  Uiso   1.00
C588   C     0.05850   0.60700   0.13510   0.01267  Uiso   1.00
C589   C     0.05280   0.57220   0.13640   0.01267  Uiso   1.00
C590   C     0.04820   0.55550   0.16730   0.01267  Uiso   1.00
C591   C     0.04540   0.57480   0.19720   0.01267  Uiso   1.00
C592   C     0.04990   0.60860   0.19710   0.01267  Uiso   1.00
C593   C     0.04420   0.63080   0.22980   0.01267  Uiso   1.00
C594   C     0.06830   0.62700   0.25540   0.01267  Uiso   1.00
C595   C     0.10080   0.61040   0.25180   0.01267  Uiso   1.00
C596   C     0.12170   0.62430   0.27600   0.01267  Uiso   1.00
C597   C     0.10230   0.64990   0.29440   0.01267  Uiso   1.00
C598   C     0.11540   0.67060   0.32020   0.01267  Uiso   1.00
C599   C     0.09510   0.69360   0.33810   0.01267  Uiso   1.00
C600   C     0.10940   0.71620   0.36370   0.01267  Uiso   1.00
C601   C     0.08680   0.73910   0.37680   0.01267  Uiso   1.00
C602   C     0.05580   0.73100   0.35840   0.01267  Uiso   1.00
C603   C     0.15060   0.66580   0.33430   0.01267  Uiso   1.00
C604   C     0.15590   0.64150   0.36000   0.01267  Uiso   1.00
C605   C     0.18930   0.63160   0.36860   0.01267  Uiso   1.00
C606   C     0.21720   0.64600   0.35150   0.01267  Uiso   1.00
C607   C     0.21190   0.67030   0.32570   0.01267  Uiso   1.00
C608   C     0.17850   0.68020   0.31710   0.01267  Uiso   1.00
C609   C     0.02720   0.75140   0.35230   0.01267  Uiso   1.00
C610   C     0.99630   0.73920   0.33820   0.01267  Uiso   1.00
C611   C     0.96170   0.75200   0.34480   0.01267  Uiso   1.00
C612   C     0.93810   0.73490   0.32550   0.01267  Uiso   1.00
C613   C     0.95940   0.71100   0.30590   0.01267  Uiso   1.00
C614   C     0.94610   0.68910   0.28010   0.01267  Uiso   1.00
C615   C     0.96600   0.66800   0.25950   0.01267  Uiso   1.00
C616   C     0.95360   0.65200   0.22840   0.01267  Uiso   1.00
C617   C     0.98140   0.63750   0.21350   0.01267  Uiso   1.00
C618   C     0.01090   0.64400   0.23500   0.01267  Uiso   1.00
C619   C     0.85670   0.70710   0.24700   0.01267  Uiso   1.00
C620   C     0.83810   0.68150   0.26360   0.01267  Uiso   1.00
C621   C     0.85470   0.65850   0.28550   0.01267  Uiso   1.00
C622   C     0.89000   0.66120   0.29080   0.01267  Uiso   1.00
C623   C     0.90870   0.68680   0.27410   0.01267  Uiso   1.00
C624   C     0.89210   0.70980   0.25220   0.01267  Uiso   1.00
C625   C     0.46150   0.18290   0.96520   0.01267  Uiso   1.00
C626   C     0.50630   0.12480   0.85930   0.01267  Uiso   1.00
C627   C     0.49100   0.15490   0.87520   0.01267  Uiso   1.00
C628   C     0.48140   0.15590   0.91160   0.01267  Uiso   1.00
C629   C     0.46960   0.18340   0.92650   0.01267  Uiso   1.00
C630   C     0.46820   0.21300   0.90740   0.01267  Uiso   1.00
C631   C     0.47510   0.21590   0.87330   0.01267  Uiso   1.00
C632   C     0.48850   0.18680   0.85840   0.01267  Uiso   1.00
C633   C     0.45720   0.48180   0.66870   0.01267  Uiso   1.00
C634   C     0.43750   0.37410   0.60120   0.01267  Uiso   1.00
C635   C     0.44220   0.37490   0.66600   0.01267  Uiso   1.00
C636   C     0.44150   0.39300   0.63510   0.01267  Uiso   1.00
C637   C     0.44720   0.42780   0.63640   0.01267  Uiso   1.00
C638   C     0.45180   0.44450   0.66730   0.01267  Uiso   1.00
C639   C     0.45460   0.42520   0.69720   0.01267  Uiso   1.00
C640   C     0.45010   0.39140   0.69710   0.01267  Uiso   1.00
C641   C     0.45580   0.36920   0.72980   0.01267  Uiso   1.00
C642   C     0.43170   0.37300   0.75540   0.01267  Uiso   1.00
C643   C     0.39920   0.38960   0.75180   0.01267  Uiso   1.00
C644   C     0.37830   0.37570   0.77600   0.01267  Uiso   1.00
C645   C     0.39770   0.35010   0.79440   0.01267  Uiso   1.00
C646   C     0.38460   0.32940   0.82020   0.01267  Uiso   1.00
C647   C     0.40490   0.30640   0.83810   0.01267  Uiso   1.00
C648   C     0.39060   0.28380   0.86370   0.01267  Uiso   1.00
C649   C     0.41320   0.26090   0.87680   0.01267  Uiso   1.00
C650   C     0.44420   0.26900   0.85840   0.01267  Uiso   1.00
C651   C     0.34940   0.33420   0.83430   0.01267  Uiso   1.00
C652   C     0.34410   0.35850   0.86000   0.01267  Uiso   1.00
C653   C     0.31070   0.36840   0.86860   0.01267  Uiso   1.00
C654   C     0.28280   0.35400   0.85150   0.01267  Uiso   1.00
C655   C     0.28810   0.32970   0.82570   0.01267  Uiso   1.00
C656   C     0.32150   0.31980   0.81710   0.01267  Uiso   1.00
C657   C     0.47280   0.24860   0.85230   0.01267  Uiso   1.00
C658   C     0.50370   0.26080   0.83820   0.01267  Uiso   1.00
C659   C     0.53830   0.24800   0.84480   0.01267  Uiso   1.00
C660   C     0.56190   0.26510   0.82550   0.01267  Uiso   1.00
C661   C     0.54060   0.28900   0.80590   0.01267  Uiso   1.00
C662   C     0.55390   0.31090   0.78010   0.01267  Uiso   1.00
C663   C     0.53400   0.33200   0.75950   0.01267  Uiso   1.00
C664   C     0.54640   0.34800   0.72840   0.01267  Uiso   1.00
C665   C     0.51860   0.36250   0.71350   0.01267  Uiso   1.00
C666   C     0.48910   0.35600   0.73500   0.01267  Uiso   1.00
C667   C     0.64330   0.29290   0.74700   0.01267  Uiso   1.00
C668   C     0.66190   0.31850   0.76360   0.01267  Uiso   1.00
C669   C     0.64530   0.34150   0.78550   0.01267  Uiso   1.00
C670   C     0.61000   0.33880   0.79080   0.01267  Uiso   1.00
C671   C     0.59130   0.31320   0.77410   0.01267  Uiso   1.00
C672   C     0.60790   0.29020   0.75220   0.01267  Uiso   1.00
C673   C     0.96150   0.31710   0.03480   0.01267  Uiso   1.00
C674   C     0.00630   0.37520   0.14070   0.01267  Uiso   1.00
C675   C     0.99100   0.34510   0.12480   0.01267  Uiso   1.00
C676   C     0.98140   0.34410   0.08840   0.01267  Uiso   1.00
C677   C     0.96960   0.31660   0.07350   0.01267  Uiso   1.00
C678   C     0.96820   0.28700   0.09260   0.01267  Uiso   1.00
C679   C     0.97510   0.28410   0.12670   0.01267  Uiso   1.00
C680   C     0.98850   0.31320   0.14160   0.01267  Uiso   1.00
C681   C     0.95720   0.01820   0.33130   0.01267  Uiso   1.00
C682   C     0.93750   0.12590   0.39880   0.01267  Uiso   1.00
C683   C     0.94220   0.12510   0.33400   0.01267  Uiso   1.00
C684   C     0.94150   0.10700   0.36490   0.01267  Uiso   1.00
C685   C     0.94720   0.07220   0.36360   0.01267  Uiso   1.00
C686   C     0.95180   0.05550   0.33270   0.01267  Uiso   1.00
C687   C     0.95460   0.07480   0.30280   0.01267  Uiso   1.00
C688   C     0.95010   0.10860   0.30290   0.01267  Uiso   1.00
C689   C     0.95580   0.13080   0.27020   0.01267  Uiso   1.00
C690   C     0.93170   0.12700   0.24460   0.01267  Uiso   1.00
C691   C     0.89920   0.11040   0.24820   0.01267  Uiso   1.00
C692   C     0.87830   0.12430   0.22400   0.01267  Uiso   1.00
C693   C     0.89770   0.14990   0.20560   0.01267  Uiso   1.00
C694   C     0.88460   0.17060   0.17980   0.01267  Uiso   1.00
C695   C     0.90490   0.19360   0.16190   0.01267  Uiso   1.00
C696   C     0.89060   0.21620   0.13630   0.01267  Uiso   1.00
C697   C     0.91320   0.23910   0.12320   0.01267  Uiso   1.00
C698   C     0.94420   0.23100   0.14160   0.01267  Uiso   1.00
C699   C     0.84940   0.16580   0.16570   0.01267  Uiso   1.00
C700   C     0.84410   0.14150   0.14000   0.01267  Uiso   1.00
C701   C     0.81070   0.13160   0.13140   0.01267  Uiso   1.00
C702   C     0.78280   0.14600   0.14850   0.01267  Uiso   1.00
C703   C     0.78810   0.17030   0.17430   0.01267  Uiso   1.00
C704   C     0.82150   0.18020   0.18290   0.01267  Uiso   1.00
C705   C     0.97280   0.25140   0.14770   0.01267  Uiso   1.00
C706   C     0.00370   0.23920   0.16180   0.01267  Uiso   1.00
C707   C     0.03830   0.25200   0.15520   0.01267  Uiso   1.00
C708   C     0.06190   0.23490   0.17450   0.01267  Uiso   1.00
C709   C     0.04060   0.21100   0.19410   0.01267  Uiso   1.00
C710   C     0.05390   0.18910   0.21990   0.01267  Uiso   1.00
C711   C     0.03400   0.16800   0.24050   0.01267  Uiso   1.00
C712   C     0.04640   0.15200   0.27160   0.01267  Uiso   1.00
C713   C     0.01860   0.13750   0.28650   0.01267  Uiso   1.00
C714   C     0.98910   0.14400   0.26500   0.01267  Uiso   1.00
C715   C     0.14330   0.20710   0.25300   0.01267  Uiso   1.00
C716   C     0.16190   0.18150   0.23640   0.01267  Uiso   1.00
C717   C     0.14530   0.15850   0.21450   0.01267  Uiso   1.00
C718   C     0.11000   0.16120   0.20920   0.01267  Uiso   1.00
C719   C     0.09130   0.18680   0.22590   0.01267  Uiso   1.00
C720   C     0.10790   0.20980   0.24780   0.01267  Uiso   1.00
C721   C     0.53850   0.68290   0.53480   0.01267  Uiso   1.00
C722   C     0.49370   0.62480   0.64070   0.01267  Uiso   1.00
C723   C     0.50900   0.65490   0.62480   0.01267  Uiso   1.00
C724   C     0.51860   0.65590   0.58840   0.01267  Uiso   1.00
C725   C     0.53040   0.68340   0.57350   0.01267  Uiso   1.00
C726   C     0.53180   0.71300   0.59260   0.01267  Uiso   1.00
C727   C     0.52490   0.71590   0.62670   0.01267  Uiso   1.00
C728   C     0.51150   0.68680   0.64160   0.01267  Uiso   1.00
C729   C     0.54280   0.98180   0.83130   0.01267  Uiso   1.00
C730   C     0.56250   0.87410   0.89880   0.01267  Uiso   1.00
C731   C     0.55780   0.87490   0.83400   0.01267  Uiso   1.00
C732   C     0.55850   0.89300   0.86490   0.01267  Uiso   1.00
C733   C     0.55280   0.92780   0.86360   0.01267  Uiso   1.00
C734   C     0.54820   0.94450   0.83270   0.01267  Uiso   1.00
C735   C     0.54540   0.92520   0.80280   0.01267  Uiso   1.00
C736   C     0.54990   0.89140   0.80290   0.01267  Uiso   1.00
C737   C     0.54420   0.86920   0.77020   0.01267  Uiso   1.00
C738   C     0.56830   0.87300   0.74460   0.01267  Uiso   1.00
C739   C     0.60080   0.88960   0.74820   0.01267  Uiso   1.00
C740   C     0.62170   0.87570   0.72400   0.01267  Uiso   1.00
C741   C     0.60230   0.85010   0.70560   0.01267  Uiso   1.00
C742   C     0.61540   0.82940   0.67980   0.01267  Uiso   1.00
C743   C     0.59510   0.80640   0.66190   0.01267  Uiso   1.00
C744   C     0.60940   0.78380   0.63630   0.01267  Uiso   1.00
C745   C     0.58680   0.76090   0.62320   0.01267  Uiso   1.00
C746   C     0.55580   0.76900   0.64160   0.01267  Uiso   1.00
C747   C     0.65060   0.83420   0.66570   0.01267  Uiso   1.00
C748   C     0.65590   0.85850   0.64000   0.01267  Uiso   1.00
C749   C     0.68930   0.86840   0.63140   0.01267  Uiso   1.00
C750   C     0.71720   0.85400   0.64850   0.01267  Uiso   1.00
C751   C     0.71190   0.82970   0.67430   0.01267  Uiso   1.00
C752   C     0.67850   0.81980   0.68290   0.01267  Uiso   1.00
C753   C     0.52720   0.74860   0.64770   0.01267  Uiso   1.00
C754   C     0.49630   0.76080   0.66180   0.01267  Uiso   1.00
C755   C     0.46170   0.74800   0.65520   0.01267  Uiso   1.00
C756   C     0.43810   0.76510   0.67450   0.01267  Uiso   1.00
C757   C     0.45940   0.78900   0.69410   0.01267  Uiso   1.00
C758   C     0.44610   0.81090   0.71990   0.01267  Uiso   1.00
C759   C     0.46600   0.83200   0.74050   0.01267  Uiso   1.00
C760   C     0.45360   0.84800   0.77160   0.01267  Uiso   1.00
C761   C     0.48140   0.86250   0.78650   0.01267  Uiso   1.00
C762   C     0.51090   0.85600   0.76500   0.01267  Uiso   1.00
C763   C     0.35670   0.79290   0.75300   0.01267  Uiso   1.00
C764   C     0.33810   0.81850   0.73640   0.01267  Uiso   1.00
C765   C     0.35470   0.84150   0.71450   0.01267  Uiso   1.00
C766   C     0.39000   0.83880   0.70920   0.01267  Uiso   1.00
C767   C     0.40870   0.81320   0.72590   0.01267  Uiso   1.00
C768   C     0.39210   0.79020   0.74780   0.01267  Uiso   1.00
C769   C     0.46520   0.03850   0.81710   0.01267  Uiso   1.00
C770   C     0.35930   0.99370   0.87520   0.01267  Uiso   1.00
C771   C     0.37520   0.00900   0.84510   0.01267  Uiso   1.00
C772   C     0.41160   0.01860   0.84410   0.01267  Uiso   1.00
C773   C     0.42650   0.03040   0.81660   0.01267  Uiso   1.00
C774   C     0.40740   0.03180   0.78700   0.01267  Uiso   1.00
C775   C     0.37330   0.02490   0.78410   0.01267  Uiso   1.00
C776   C     0.35840   0.01150   0.81320   0.01267  Uiso   1.00
C777   C     0.16870   0.04280   0.51820   0.01267  Uiso   1.00
C778   C     0.10120   0.06250   0.62590   0.01267  Uiso   1.00
C779   C     0.16600   0.05780   0.62510   0.01267  Uiso   1.00
C780   C     0.13510   0.05850   0.60700   0.01267  Uiso   1.00
C781   C     0.13640   0.05280   0.57220   0.01267  Uiso   1.00
C782   C     0.16730   0.04820   0.55550   0.01267  Uiso   1.00
C783   C     0.19720   0.04540   0.57480   0.01267  Uiso   1.00
C784   C     0.19710   0.04990   0.60860   0.01267  Uiso   1.00
C785   C     0.22980   0.04420   0.63080   0.01267  Uiso   1.00
C786   C     0.25540   0.06830   0.62700   0.01267  Uiso   1.00
C787   C     0.25180   0.10080   0.61040   0.01267  Uiso   1.00
C788   C     0.27600   0.12170   0.62430   0.01267  Uiso   1.00
C789   C     0.29440   0.10230   0.64990   0.01267  Uiso   1.00
C790   C     0.32020   0.11540   0.67060   0.01267  Uiso   1.00
C791   C     0.33810   0.09510   0.69360   0.01267  Uiso   1.00
C792   C     0.36370   0.10940   0.71620   0.01267  Uiso   1.00
C793   C     0.37680   0.08680   0.73910   0.01267  Uiso   1.00
C794   C     0.35840   0.05580   0.73100   0.01267  Uiso   1.00
C795   C     0.33430   0.15060   0.66580   0.01267  Uiso   1.00
C796   C     0.36000   0.15590   0.64150   0.01267  Uiso   1.00
C797   C     0.36860   0.18930   0.63160   0.01267  Uiso   1.00
C798   C     0.35150   0.21720   0.64600   0.01267  Uiso   1.00
C799   C     0.32570   0.21190   0.67030   0.01267  Uiso   1.00
C800   C     0.31710   0.17850   0.68020   0.01267  Uiso   1.00
C801   C     0.35230   0.02720   0.75140   0.01267  Uiso   1.00
C802   C     0.33820   0.99630   0.73920   0.01267  Uiso   1.00
C803   C     0.34480   0.96170   0.75200   0.01267  Uiso   1.00
C804   C     0.32550   0.93810   0.73490   0.01267  Uiso   1.00
C805   C     0.30590   0.95940   0.71100   0.01267  Uiso   1.00
C806   C     0.28010   0.94610   0.68910   0.01267  Uiso   1.00
C807   C     0.25950   0.96600   0.66800   0.01267  Uiso   1.00
C808   C     0.22840   0.95360   0.65200   0.01267  Uiso   1.00
C809   C     0.21350   0.98140   0.63750   0.01267  Uiso   1.00
C810   C     0.23500   0.01090   0.64400   0.01267  Uiso   1.00
C811   C     0.24700   0.85670   0.70710   0.01267  Uiso   1.00
C812   C     0.26360   0.83810   0.68150   0.01267  Uiso   1.00
C813   C     0.28550   0.85470   0.65850   0.01267  Uiso   1.00
C814   C     0.29080   0.89000   0.66120   0.01267  Uiso   1.00
C815   C     0.27410   0.90870   0.68680   0.01267  Uiso   1.00
C816   C     0.25220   0.89210   0.70980   0.01267  Uiso   1.00
C817   C     0.96520   0.46150   0.18290   0.01267  Uiso   1.00
C818   C     0.85930   0.50630   0.12480   0.01267  Uiso   1.00
C819   C     0.87520   0.49100   0.15490   0.01267  Uiso   1.00
C820   C     0.91160   0.48140   0.15590   0.01267  Uiso   1.00
C821   C     0.92650   0.46960   0.18340   0.01267  Uiso   1.00
C822   C     0.90740   0.46820   0.21300   0.01267  Uiso   1.00
C823   C     0.87330   0.47510   0.21590   0.01267  Uiso   1.00
C824   C     0.85840   0.48850   0.18680   0.01267  Uiso   1.00
C825   C     0.66870   0.45720   0.48180   0.01267  Uiso   1.00
C826   C     0.60120   0.43750   0.37410   0.01267  Uiso   1.00
C827   C     0.66600   0.44220   0.37490   0.01267  Uiso   1.00
C828   C     0.63510   0.44150   0.39300   0.01267  Uiso   1.00
C829   C     0.63640   0.44720   0.42780   0.01267  Uiso   1.00
C830   C     0.66730   0.45180   0.44450   0.01267  Uiso   1.00
C831   C     0.69720   0.45460   0.42520   0.01267  Uiso   1.00
C832   C     0.69710   0.45010   0.39140   0.01267  Uiso   1.00
C833   C     0.72980   0.45580   0.36920   0.01267  Uiso   1.00
C834   C     0.75540   0.43170   0.37300   0.01267  Uiso   1.00
C835   C     0.75180   0.39920   0.38960   0.01267  Uiso   1.00
C836   C     0.77600   0.37830   0.37570   0.01267  Uiso   1.00
C837   C     0.79440   0.39770   0.35010   0.01267  Uiso   1.00
C838   C     0.82020   0.38460   0.32940   0.01267  Uiso   1.00
C839   C     0.83810   0.40490   0.30640   0.01267  Uiso   1.00
C840   C     0.86370   0.39060   0.28380   0.01267  Uiso   1.00
C841   C     0.87680   0.41320   0.26090   0.01267  Uiso   1.00
C842   C     0.85840   0.44420   0.26900   0.01267  Uiso   1.00
C843   C     0.83430   0.34940   0.33420   0.01267  Uiso   1.00
C844   C     0.86000   0.34410   0.35850   0.01267  Uiso   1.00
C845   C     0.86860   0.31070   0.36840   0.01267  Uiso   1.00
C846   C     0.85150   0.28280   0.35400   0.01267  Uiso   1.00
C847   C     0.82570   0.28810   0.32970   0.01267  Uiso   1.00
C848   C     0.81710   0.32150   0.31980   0.01267  Uiso   1.00
C849   C     0.85230   0.47280   0.24860   0.01267  Uiso   1.00
C850   C     0.83820   0.50370   0.26080   0.01267  Uiso   1.00
C851   C     0.84480   0.53830   0.24800   0.01267  Uiso   1.00
C852   C     0.82550   0.56190   0.26510   0.01267  Uiso   1.00
C853   C     0.80590   0.54060   0.28900   0.01267  Uiso   1.00
C854   C     0.78010   0.55390   0.31090   0.01267  Uiso   1.00
C855   C     0.75950   0.53400   0.33200   0.01267  Uiso   1.00
C856   C     0.72840   0.54640   0.34800   0.01267  Uiso   1.00
C857   C     0.71350   0.51860   0.36250   0.01267  Uiso   1.00
C858   C     0.73500   0.48910   0.35600   0.01267  Uiso   1.00
C859   C     0.74700   0.64330   0.29290   0.01267  Uiso   1.00
C860   C     0.76360   0.66190   0.31850   0.01267  Uiso   1.00
C861   C     0.78550   0.64530   0.34150   0.01267  Uiso   1.00
C862   C     0.79080   0.61000   0.33880   0.01267  Uiso   1.00
C863   C     0.77410   0.59130   0.31320   0.01267  Uiso   1.00
C864   C     0.75220   0.60790   0.29020   0.01267  Uiso   1.00
C865   C     0.03480   0.96150   0.31710   0.01267  Uiso   1.00
C866   C     0.14070   0.00630   0.37520   0.01267  Uiso   1.00
C867   C     0.12480   0.99100   0.34510   0.01267  Uiso   1.00
C868   C     0.08840   0.98140   0.34410   0.01267  Uiso   1.00
C869   C     0.07350   0.96960   0.31660   0.01267  Uiso   1.00
C870   C     0.09260   0.96820   0.28700   0.01267  Uiso   1.00
C871   C     0.12670   0.97510   0.28410   0.01267  Uiso   1.00
C872   C     0.14160   0.98850   0.31320   0.01267  Uiso   1.00
C873   C     0.33130   0.95720   0.01820   0.01267  Uiso   1.00
C874   C     0.39880   0.93750   0.12590   0.01267  Uiso   1.00
C875   C     0.33400   0.94220   0.12510   0.01267  Uiso   1.00
C876   C     0.36490   0.94150   0.10700   0.01267  Uiso   1.00
C877   C     0.36360   0.94720   0.07220   0.01267  Uiso   1.00
C878   C     0.33270   0.95180   0.05550   0.01267  Uiso   1.00
C879   C     0.30280   0.95460   0.07480   0.01267  Uiso   1.00
C880   C     0.30290   0.95010   0.10860   0.01267  Uiso   1.00
C881   C     0.27020   0.95580   0.13080   0.01267  Uiso   1.00
C882   C     0.24460   0.93170   0.12700   0.01267  Uiso   1.00
C883   C     0.24820   0.89920   0.11040   0.01267  Uiso   1.00
C884   C     0.22400   0.87830   0.12430   0.01267  Uiso   1.00
C885   C     0.20560   0.89770   0.14990   0.01267  Uiso   1.00
C886   C     0.17980   0.88460   0.17060   0.01267  Uiso   1.00
C887   C     0.16190   0.90490   0.19360   0.01267  Uiso   1.00
C888   C     0.13630   0.89060   0.21620   0.01267  Uiso   1.00
C889   C     0.12320   0.91320   0.23910   0.01267  Uiso   1.00
C890   C     0.14160   0.94420   0.23100   0.01267  Uiso   1.00
C891   C     0.16570   0.84940   0.16580   0.01267  Uiso   1.00
C892   C     0.14000   0.84410   0.14150   0.01267  Uiso   1.00
C893   C     0.13140   0.81070   0.13160   0.01267  Uiso   1.00
C894   C     0.14850   0.78280   0.14600   0.01267  Uiso   1.00
C895   C     0.17430   0.78810   0.17030   0.01267  Uiso   1.00
C896   C     0.18290   0.82150   0.18020   0.01267  Uiso   1.00
C897   C     0.14770   0.97280   0.25140   0.01267  Uiso   1.00
C898   C     0.16180   0.00370   0.23920   0.01267  Uiso   1.00
C899   C     0.15520   0.03830   0.25200   0.01267  Uiso   1.00
C900   C     0.17450   0.06190   0.23490   0.01267  Uiso   1.00
C901   C     0.19410   0.04060   0.21100   0.01267  Uiso   1.00
C902   C     0.21990   0.05390   0.18910   0.01267  Uiso   1.00
C903   C     0.24050   0.03400   0.16800   0.01267  Uiso   1.00
C904   C     0.27160   0.04640   0.15200   0.01267  Uiso   1.00
C905   C     0.28650   0.01860   0.13750   0.01267  Uiso   1.00
C906   C     0.26500   0.98910   0.14400   0.01267  Uiso   1.00
C907   C     0.25300   0.14330   0.20710   0.01267  Uiso   1.00
C908   C     0.23640   0.16190   0.18150   0.01267  Uiso   1.00
C909   C     0.21450   0.14530   0.15850   0.01267  Uiso   1.00
C910   C     0.20920   0.11000   0.16120   0.01267  Uiso   1.00
C911   C     0.22590   0.09130   0.18680   0.01267  Uiso   1.00
C912   C     0.24780   0.10790   0.20980   0.01267  Uiso   1.00
C913   C     0.53480   0.53850   0.68290   0.01267  Uiso   1.00
C914   C     0.64070   0.49370   0.62480   0.01267  Uiso   1.00
C915   C     0.62480   0.50900   0.65490   0.01267  Uiso   1.00
C916   C     0.58840   0.51860   0.65590   0.01267  Uiso   1.00
C917   C     0.57350   0.53040   0.68340   0.01267  Uiso   1.00
C918   C     0.59260   0.53180   0.71300   0.01267  Uiso   1.00
C919   C     0.62670   0.52490   0.71590   0.01267  Uiso   1.00
C920   C     0.64160   0.51150   0.68680   0.01267  Uiso   1.00
C921   C     0.83130   0.54280   0.98180   0.01267  Uiso   1.00
C922   C     0.89880   0.56250   0.87410   0.01267  Uiso   1.00
C923   C     0.83400   0.55780   0.87490   0.01267  Uiso   1.00
C924   C     0.86490   0.55850   0.89300   0.01267  Uiso   1.00
C925   C     0.86360   0.55280   0.92780   0.01267  Uiso   1.00
C926   C     0.83270   0.54820   0.94450   0.01267  Uiso   1.00
C927   C     0.80280   0.54540   0.92520   0.01267  Uiso   1.00
C928   C     0.80290   0.54990   0.89140   0.01267  Uiso   1.00
C929   C     0.77020   0.54420   0.86920   0.01267  Uiso   1.00
C930   C     0.74460   0.56830   0.87300   0.01267  Uiso   1.00
C931   C     0.74820   0.60080   0.88960   0.01267  Uiso   1.00
C932   C     0.72400   0.62170   0.87570   0.01267  Uiso   1.00
C933   C     0.70560   0.60230   0.85010   0.01267  Uiso   1.00
C934   C     0.67980   0.61540   0.82940   0.01267  Uiso   1.00
C935   C     0.66190   0.59510   0.80640   0.01267  Uiso   1.00
C936   C     0.63630   0.60940   0.78380   0.01267  Uiso   1.00
C937   C     0.62320   0.58680   0.76090   0.01267  Uiso   1.00
C938   C     0.64160   0.55580   0.76900   0.01267  Uiso   1.00
C939   C     0.66570   0.65060   0.83420   0.01267  Uiso   1.00
C940   C     0.64000   0.65590   0.85850   0.01267  Uiso   1.00
C941   C     0.63140   0.68930   0.86840   0.01267  Uiso   1.00
C942   C     0.64850   0.71720   0.85400   0.01267  Uiso   1.00
C943   C     0.67430   0.71190   0.82970   0.01267  Uiso   1.00
C944   C     0.68290   0.67850   0.81980   0.01267  Uiso   1.00
C945   C     0.64770   0.52720   0.74860   0.01267  Uiso   1.00
C946   C     0.66180   0.49630   0.76080   0.01267  Uiso   1.00
C947   C     0.65520   0.46170   0.74800   0.01267  Uiso   1.00
C948   C     0.67450   0.43810   0.76510   0.01267  Uiso   1.00
C949   C     0.69410   0.45940   0.78900   0.01267  Uiso   1.00
C950   C     0.71990   0.44610   0.81090   0.01267  Uiso   1.00
C951   C     0.74050   0.46600   0.83200   0.01267  Uiso   1.00
C952   C     0.77160   0.45360   0.84800   0.01267  Uiso   1.00
C953   C     0.78650   0.48140   0.86250   0.01267  Uiso   1.00
C954   C     0.76500   0.51090   0.85600   0.01267  Uiso   1.00
C955   C     0.75300   0.35670   0.79290   0.01267  Uiso   1.00
C956   C     0.73640   0.33810   0.81850   0.01267  Uiso   1.00
C957   C     0.71450   0.35470   0.84150   0.01267  Uiso   1.00
C958   C     0.70920   0.39000   0.83880   0.01267  Uiso   1.00
C959   C     0.72590   0.40870   0.81320   0.01267  Uiso   1.00
C960   C     0.74780   0.39210   0.79020   0.01267  Uiso   1.00
C961   C     0.81710   0.46520   0.03850   0.01267  Uiso   1.00
C962   C     0.87520   0.35930   0.99370   0.01267  Uiso   1.00
C963   C     0.84510   0.37520   0.00900   0.01267  Uiso   1.00
C964   C     0.84410   0.41160   0.01860   0.01267  Uiso   1.00
C965   C     0.81660   0.42650   0.03040   0.01267  Uiso   1.00
C966   C     0.78700   0.40740   0.03180   0.01267  Uiso   1.00
C967   C     0.78410   0.37330   0.02490   0.01267  Uiso   1.00
C968   C     0.81320   0.35840   0.01150   0.01267  Uiso   1.00
C969   C     0.51820   0.16870   0.04280   0.01267  Uiso   1.00
C970   C     0.62590   0.10120   0.06250   0.01267  Uiso   1.00
C971   C     0.62510   0.16600   0.05780   0.01267  Uiso   1.00
C972   C     0.60700   0.13510   0.05850   0.01267  Uiso   1.00
C973   C     0.57220   0.13640   0.05280   0.01267  Uiso   1.00
C974   C     0.55550   0.16730   0.04820   0.01267  Uiso   1.00
C975   C     0.57480   0.19720   0.04540   0.01267  Uiso   1.00
C976   C     0.60860   0.19710   0.04990   0.01267  Uiso   1.00
C977   C     0.63080   0.22980   0.04420   0.01267  Uiso   1.00
C978   C     0.62700   0.25540   0.06830   0.01267  Uiso   1.00
C979   C     0.61040   0.25180   0.10080   0.01267  Uiso   1.00
C980   C     0.62430   0.27600   0.12170   0.01267  Uiso   1.00
C981   C     0.64990   0.29440   0.10230   0.01267  Uiso   1.00
C982   C     0.67060   0.32020   0.11540   0.01267  Uiso   1.00
C983   C     0.69360   0.33810   0.09510   0.01267  Uiso   1.00
C984   C     0.71620   0.36370   0.10940   0.01267  Uiso   1.00
C985   C     0.73910   0.37680   0.08680   0.01267  Uiso   1.00
C986   C     0.73100   0.35840   0.05580   0.01267  Uiso   1.00
C987   C     0.66580   0.33430   0.15060   0.01267  Uiso   1.00
C988   C     0.64150   0.36000   0.15590   0.01267  Uiso   1.00
C989   C     0.63160   0.36860   0.18930   0.01267  Uiso   1.00
C990   C     0.64600   0.35150   0.21720   0.01267  Uiso   1.00
C991   C     0.67030   0.32570   0.21190   0.01267  Uiso   1.00
C992   C     0.68020   0.31710   0.17850   0.01267  Uiso   1.00
C993   C     0.75140   0.35230   0.02720   0.01267  Uiso   1.00
C994   C     0.73920   0.33820   0.99630   0.01267  Uiso   1.00
C995   C     0.75200   0.34480   0.96170   0.01267  Uiso   1.00
C996   C     0.73490   0.32550   0.93810   0.01267  Uiso   1.00
C997   C     0.71100   0.30590   0.95940   0.01267  Uiso   1.00
C998   C     0.68910   0.28010   0.94610   0.01267  Uiso   1.00
C999   C     0.66800   0.25950   0.96600   0.01267  Uiso   1.00
C1000  C     0.65200   0.22840   0.95360   0.01267  Uiso   1.00
C1001  C     0.63750   0.21350   0.98140   0.01267  Uiso   1.00
C1002  C     0.64400   0.23500   0.01090   0.01267  Uiso   1.00
C1003  C     0.70710   0.24700   0.85670   0.01267  Uiso   1.00
C1004  C     0.68150   0.26360   0.83810   0.01267  Uiso   1.00
C1005  C     0.65850   0.28550   0.85470   0.01267  Uiso   1.00
C1006  C     0.66120   0.29080   0.89000   0.01267  Uiso   1.00
C1007  C     0.68680   0.27410   0.90870   0.01267  Uiso   1.00
C1008  C     0.70980   0.25220   0.89210   0.01267  Uiso   1.00
C1009  C     0.18290   0.96520   0.46150   0.01267  Uiso   1.00
C1010  C     0.12480   0.85930   0.50630   0.01267  Uiso   1.00
C1011  C     0.15490   0.87520   0.49100   0.01267  Uiso   1.00
C1012  C     0.15590   0.91160   0.48140   0.01267  Uiso   1.00
C1013  C     0.18340   0.92650   0.46960   0.01267  Uiso   1.00
C1014  C     0.21300   0.90740   0.46820   0.01267  Uiso   1.00
C1015  C     0.21590   0.87330   0.47510   0.01267  Uiso   1.00
C1016  C     0.18680   0.85840   0.48850   0.01267  Uiso   1.00
C1017  C     0.48180   0.66870   0.45720   0.01267  Uiso   1.00
C1018  C     0.37410   0.60120   0.43750   0.01267  Uiso   1.00
C1019  C     0.37490   0.66600   0.44220   0.01267  Uiso   1.00
C1020  C     0.39300   0.63510   0.44150   0.01267  Uiso   1.00
C1021  C     0.42780   0.63640   0.44720   0.01267  Uiso   1.00
C1022  C     0.44450   0.66730   0.45180   0.01267  Uiso   1.00
C1023  C     0.42520   0.69720   0.45460   0.01267  Uiso   1.00
C1024  C     0.39140   0.69710   0.45010   0.01267  Uiso   1.00
C1025  C     0.36920   0.72980   0.45580   0.01267  Uiso   1.00
C1026  C     0.37300   0.75540   0.43170   0.01267  Uiso   1.00
C1027  C     0.38960   0.75180   0.39920   0.01267  Uiso   1.00
C1028  C     0.37570   0.77600   0.37830   0.01267  Uiso   1.00
C1029  C     0.35010   0.79440   0.39770   0.01267  Uiso   1.00
C1030  C     0.32940   0.82020   0.38460   0.01267  Uiso   1.00
C1031  C     0.30640   0.83810   0.40490   0.01267  Uiso   1.00
C1032  C     0.28380   0.86370   0.39060   0.01267  Uiso   1.00
C1033  C     0.26090   0.87680   0.41320   0.01267  Uiso   1.00
C1034  C     0.26900   0.85840   0.44420   0.01267  Uiso   1.00
C1035  C     0.33420   0.83430   0.34940   0.01267  Uiso   1.00
C1036  C     0.35850   0.86000   0.34410   0.01267  Uiso   1.00
C1037  C     0.36840   0.86860   0.31070   0.01267  Uiso   1.00
C1038  C     0.35400   0.85150   0.28280   0.01267  Uiso   1.00
C1039  C     0.32970   0.82570   0.28810   0.01267  Uiso   1.00
C1040  C     0.31980   0.81710   0.32150   0.01267  Uiso   1.00
C1041  C     0.24860   0.85230   0.47280   0.01267  Uiso   1.00
C1042  C     0.26080   0.83820   0.50370   0.01267  Uiso   1.00
C1043  C     0.24800   0.84480   0.53830   0.01267  Uiso   1.00
C1044  C     0.26510   0.82550   0.56190   0.01267  Uiso   1.00
C1045  C     0.28900   0.80590   0.54060   0.01267  Uiso   1.00
C1046  C     0.31090   0.78010   0.55390   0.01267  Uiso   1.00
C1047  C     0.33200   0.75950   0.53400   0.01267  Uiso   1.00
C1048  C     0.34800   0.72840   0.54640   0.01267  Uiso   1.00
C1049  C     0.36250   0.71350   0.51860   0.01267  Uiso   1.00
C1050  C     0.35600   0.73500   0.48910   0.01267  Uiso   1.00
C1051  C     0.29290   0.74700   0.64330   0.01267  Uiso   1.00
C1052  C     0.31850   0.76360   0.66190   0.01267  Uiso   1.00
C1053  C     0.34150   0.78550   0.64530   0.01267  Uiso   1.00
C1054  C     0.33880   0.79080   0.61000   0.01267  Uiso   1.00
C1055  C     0.31320   0.77410   0.59130   0.01267  Uiso   1.00
C1056  C     0.29020   0.75220   0.60790   0.01267  Uiso   1.00
C1057  C     0.31710   0.03480   0.96150   0.01267  Uiso   1.00
C1058  C     0.37520   0.14070   0.00630   0.01267  Uiso   1.00
C1059  C     0.34510   0.12480   0.99100   0.01267  Uiso   1.00
C1060  C     0.34410   0.08840   0.98140   0.01267  Uiso   1.00
C1061  C     0.31660   0.07350   0.96960   0.01267  Uiso   1.00
C1062  C     0.28700   0.09260   0.96820   0.01267  Uiso   1.00
C1063  C     0.28410   0.12670   0.97510   0.01267  Uiso   1.00
C1064  C     0.31320   0.14160   0.98850   0.01267  Uiso   1.00
C1065  C     0.01820   0.33130   0.95720   0.01267  Uiso   1.00
C1066  C     0.12590   0.39880   0.93750   0.01267  Uiso   1.00
C1067  C     0.12510   0.33400   0.94220   0.01267  Uiso   1.00
C1068  C     0.10700   0.36490   0.94150   0.01267  Uiso   1.00
C1069  C     0.07220   0.36360   0.94720   0.01267  Uiso   1.00
C1070  C     0.05550   0.33270   0.95180   0.01267  Uiso   1.00
C1071  C     0.07480   0.30280   0.95460   0.01267  Uiso   1.00
C1072  C     0.10860   0.30290   0.95010   0.01267  Uiso   1.00
C1073  C     0.13080   0.27020   0.95580   0.01267  Uiso   1.00
C1074  C     0.12700   0.24460   0.93170   0.01267  Uiso   1.00
C1075  C     0.11040   0.24820   0.89920   0.01267  Uiso   1.00
C1076  C     0.12430   0.22400   0.87830   0.01267  Uiso   1.00
C1077  C     0.14990   0.20560   0.89770   0.01267  Uiso   1.00
C1078  C     0.17060   0.17980   0.88460   0.01267  Uiso   1.00
C1079  C     0.19360   0.16190   0.90490   0.01267  Uiso   1.00
C1080  C     0.21620   0.13630   0.89060   0.01267  Uiso   1.00
C1081  C     0.23910   0.12320   0.91320   0.01267  Uiso   1.00
C1082  C     0.23100   0.14160   0.94420   0.01267  Uiso   1.00
C1083  C     0.16580   0.16570   0.84940   0.01267  Uiso   1.00
C1084  C     0.14150   0.14000   0.84410   0.01267  Uiso   1.00
C1085  C     0.13160   0.13140   0.81070   0.01267  Uiso   1.00
C1086  C     0.14600   0.14850   0.78280   0.01267  Uiso   1.00
C1087  C     0.17030   0.17430   0.78810   0.01267  Uiso   1.00
C1088  C     0.18020   0.18290   0.82150   0.01267  Uiso   1.00
C1089  C     0.25140   0.14770   0.97280   0.01267  Uiso   1.00
C1090  C     0.23920   0.16180   0.00370   0.01267  Uiso   1.00
C1091  C     0.25200   0.15520   0.03830   0.01267  Uiso   1.00
C1092  C     0.23490   0.17450   0.06190   0.01267  Uiso   1.00
C1093  C     0.21100   0.19410   0.04060   0.01267  Uiso   1.00
C1094  C     0.18910   0.21990   0.05390   0.01267  Uiso   1.00
C1095  C     0.16800   0.24050   0.03400   0.01267  Uiso   1.00
C1096  C     0.15200   0.27160   0.04640   0.01267  Uiso   1.00
C1097  C     0.13750   0.28650   0.01860   0.01267  Uiso   1.00
C1098  C     0.14400   0.26500   0.98910   0.01267  Uiso   1.00
C1099  C     0.20710   0.25300   0.14330   0.01267  Uiso   1.00
C1100  C     0.18150   0.23640   0.16190   0.01267  Uiso   1.00
C1101  C     0.15850   0.21450   0.14530   0.01267  Uiso   1.00
C1102  C     0.16120   0.20920   0.11000   0.01267  Uiso   1.00
C1103  C     0.18680   0.22590   0.09130   0.01267  Uiso   1.00
C1104  C     0.20980   0.24780   0.10790   0.01267  Uiso   1.00
C1105  C     0.68290   0.53480   0.53850   0.01267  Uiso   1.00
C1106  C     0.62480   0.64070   0.49370   0.01267  Uiso   1.00
C1107  C     0.65490   0.62480   0.50900   0.01267  Uiso   1.00
C1108  C     0.65590   0.58840   0.51860   0.01267  Uiso   1.00
C1109  C     0.68340   0.57350   0.53040   0.01267  Uiso   1.00
C1110  C     0.71300   0.59260   0.53180   0.01267  Uiso   1.00
C1111  C     0.71590   0.62670   0.52490   0.01267  Uiso   1.00
C1112  C     0.68680   0.64160   0.51150   0.01267  Uiso   1.00
C1113  C     0.98180   0.83130   0.54280   0.01267  Uiso   1.00
C1114  C     0.87410   0.89880   0.56250   0.01267  Uiso   1.00
C1115  C     0.87490   0.83400   0.55780   0.01267  Uiso   1.00
C1116  C     0.89300   0.86490   0.55850   0.01267  Uiso   1.00
C1117  C     0.92780   0.86360   0.55280   0.01267  Uiso   1.00
C1118  C     0.94450   0.83270   0.54820   0.01267  Uiso   1.00
C1119  C     0.92520   0.80280   0.54540   0.01267  Uiso   1.00
C1120  C     0.89140   0.80290   0.54990   0.01267  Uiso   1.00
C1121  C     0.86920   0.77020   0.54420   0.01267  Uiso   1.00
C1122  C     0.87300   0.74460   0.56830   0.01267  Uiso   1.00
C1123  C     0.88960   0.74820   0.60080   0.01267  Uiso   1.00
C1124  C     0.87570   0.72400   0.62170   0.01267  Uiso   1.00
C1125  C     0.85010   0.70560   0.60230   0.01267  Uiso   1.00
C1126  C     0.82940   0.67980   0.61540   0.01267  Uiso   1.00
C1127  C     0.80640   0.66190   0.59510   0.01267  Uiso   1.00
C1128  C     0.78380   0.63630   0.60940   0.01267  Uiso   1.00
C1129  C     0.76090   0.62320   0.58680   0.01267  Uiso   1.00
C1130  C     0.76900   0.64160   0.55580   0.01267  Uiso   1.00
C1131  C     0.83420   0.66570   0.65060   0.01267  Uiso   1.00
C1132  C     0.85850   0.64000   0.65590   0.01267  Uiso   1.00
C1133  C     0.86840   0.63140   0.68930   0.01267  Uiso   1.00
C1134  C     0.85400   0.64850   0.71720   0.01267  Uiso   1.00
C1135  C     0.82970   0.67430   0.71190   0.01267  Uiso   1.00
C1136  C     0.81980   0.68290   0.67850   0.01267  Uiso   1.00
C1137  C     0.74860   0.64770   0.52720   0.01267  Uiso   1.00
C1138  C     0.76080   0.66180   0.49630   0.01267  Uiso   1.00
C1139  C     0.74800   0.65520   0.46170   0.01267  Uiso   1.00
C1140  C     0.76510   0.67450   0.43810   0.01267  Uiso   1.00
C1141  C     0.78900   0.69410   0.45940   0.01267  Uiso   1.00
C1142  C     0.81090   0.71990   0.44610   0.01267  Uiso   1.00
C1143  C     0.83200   0.74050   0.46600   0.01267  Uiso   1.00
C1144  C     0.84800   0.77160   0.45360   0.01267  Uiso   1.00
C1145  C     0.86250   0.78650   0.48140   0.01267  Uiso   1.00
C1146  C     0.85600   0.76500   0.51090   0.01267  Uiso   1.00
C1147  C     0.79290   0.75300   0.35670   0.01267  Uiso   1.00
C1148  C     0.81850   0.73640   0.33810   0.01267  Uiso   1.00
C1149  C     0.84150   0.71450   0.35470   0.01267  Uiso   1.00
C1150  C     0.83880   0.70920   0.39000   0.01267  Uiso   1.00
C1151  C     0.81320   0.72590   0.40870   0.01267  Uiso   1.00
C1152  C     0.79020   0.74780   0.39210   0.01267  Uiso   1.00
Br1    Br    0.08450   0.25570   0.77170   0.01267  Uiso   1.00
Br2    Br    0.82710   0.28930   0.71930   0.01267  Uiso   1.00
Br3    Br    0.88091   0.38279   0.61993   0.01267  Uiso   1.00
Br4    Br    0.08820   0.37030   0.67820   0.01267  Uiso   1.00
Br5    Br    0.41550   0.74430   0.27170   0.01267  Uiso   1.00
Br6    Br    0.67290   0.71070   0.21930   0.01267  Uiso   1.00
Br7    Br    0.61909   0.61721   0.11993   0.01267  Uiso   1.00
Br8    Br    0.41180   0.62970   0.17820   0.01267  Uiso   1.00
Br9    Br    0.91550   0.75570   0.72830   0.01267  Uiso   1.00
Br10   Br    0.17290   0.78930   0.78070   0.01267  Uiso   1.00
Br11   Br    0.11909   0.88279   0.88007   0.01267  Uiso   1.00
Br12   Br    0.91180   0.87030   0.82180   0.01267  Uiso   1.00
Br13   Br    0.58450   0.24430   0.22830   0.01267  Uiso   1.00
Br14   Br    0.32710   0.21070   0.28070   0.01267  Uiso   1.00
Br15   Br    0.38091   0.11721   0.38007   0.01267  Uiso   1.00
Br16   Br    0.58820   0.12970   0.32180   0.01267  Uiso   1.00
Br17   Br    0.77170   0.08450   0.25570   0.01267  Uiso   1.00
Br18   Br    0.71930   0.82710   0.28930   0.01267  Uiso   1.00
Br19   Br    0.61993   0.88091   0.38279   0.01267  Uiso   1.00
Br20   Br    0.67820   0.08820   0.37030   0.01267  Uiso   1.00
Br21   Br    0.27170   0.41550   0.74430   0.01267  Uiso   1.00
Br22   Br    0.21930   0.67290   0.71070   0.01267  Uiso   1.00
Br23   Br    0.11993   0.61909   0.61721   0.01267  Uiso   1.00
Br24   Br    0.17820   0.41180   0.62970   0.01267  Uiso   1.00
Br25   Br    0.72830   0.91550   0.75570   0.01267  Uiso   1.00
Br26   Br    0.78070   0.17290   0.78930   0.01267  Uiso   1.00
Br27   Br    0.88007   0.11909   0.88279   0.01267  Uiso   1.00
Br28   Br    0.82180   0.91180   0.87030   0.01267  Uiso   1.00
Br29   Br    0.22830   0.58450   0.24430   0.01267  Uiso   1.00
Br30   Br    0.28070   0.32710   0.21070   0.01267  Uiso   1.00
Br31   Br    0.38007   0.38091   0.11721   0.01267  Uiso   1.00
Br32   Br    0.32180   0.58820   0.12970   0.01267  Uiso   1.00
Br33   Br    0.25570   0.77170   0.08450   0.01267  Uiso   1.00
Br34   Br    0.28930   0.71930   0.82710   0.01267  Uiso   1.00
Br35   Br    0.38279   0.61993   0.88091   0.01267  Uiso   1.00
Br36   Br    0.37030   0.67820   0.08820   0.01267  Uiso   1.00
Br37   Br    0.74430   0.27170   0.41550   0.01267  Uiso   1.00
Br38   Br    0.71070   0.21930   0.67290   0.01267  Uiso   1.00
Br39   Br    0.61721   0.11993   0.61909   0.01267  Uiso   1.00
Br40   Br    0.62970   0.17820   0.41180   0.01267  Uiso   1.00
Br41   Br    0.75570   0.72830   0.91550   0.01267  Uiso   1.00
Br42   Br    0.78930   0.78070   0.17290   0.01267  Uiso   1.00
Br43   Br    0.88279   0.88007   0.11909   0.01267  Uiso   1.00
Br44   Br    0.87030   0.82180   0.91180   0.01267  Uiso   1.00
Br45   Br    0.24430   0.22830   0.58450   0.01267  Uiso   1.00
Br46   Br    0.21070   0.28070   0.32710   0.01267  Uiso   1.00
Br47   Br    0.11721   0.38007   0.38091   0.01267  Uiso   1.00
Br48   Br    0.12970   0.32180   0.58820   0.01267  Uiso   1.00
Br49   Br    0.91550   0.74430   0.22830   0.01267  Uiso   1.00
Br50   Br    0.17290   0.71070   0.28070   0.01267  Uiso   1.00
Br51   Br    0.11909   0.61721   0.38007   0.01267  Uiso   1.00
Br52   Br    0.91180   0.62970   0.32180   0.01267  Uiso   1.00
Br53   Br    0.58450   0.25570   0.72830   0.01267  Uiso   1.00
Br54   Br    0.32710   0.28930   0.78070   0.01267  Uiso   1.00
Br55   Br    0.38091   0.38279   0.88007   0.01267  Uiso   1.00
Br56   Br    0.58820   0.37030   0.82180   0.01267  Uiso   1.00
Br57   Br    0.08450   0.24430   0.27170   0.01267  Uiso   1.00
Br58   Br    0.82710   0.21070   0.21930   0.01267  Uiso   1.00
Br59   Br    0.88091   0.11721   0.11993   0.01267  Uiso   1.00
Br60   Br    0.08820   0.12970   0.17820   0.01267  Uiso   1.00
Br61   Br    0.41550   0.75570   0.77170   0.01267  Uiso   1.00
Br62   Br    0.67290   0.78930   0.71930   0.01267  Uiso   1.00
Br63   Br    0.61909   0.88279   0.61993   0.01267  Uiso   1.00
Br64   Br    0.41180   0.87030   0.67820   0.01267  Uiso   1.00
Br65   Br    0.22830   0.91550   0.74430   0.01267  Uiso   1.00
Br66   Br    0.28070   0.17290   0.71070   0.01267  Uiso   1.00
Br67   Br    0.38007   0.11909   0.61721   0.01267  Uiso   1.00
Br68   Br    0.32180   0.91180   0.62970   0.01267  Uiso   1.00
Br69   Br    0.72830   0.58450   0.25570   0.01267  Uiso   1.00
Br70   Br    0.78070   0.32710   0.28930   0.01267  Uiso   1.00
Br71   Br    0.88007   0.38091   0.38279   0.01267  Uiso   1.00
Br72   Br    0.82180   0.58820   0.37030   0.01267  Uiso   1.00
Br73   Br    0.27170   0.08450   0.24430   0.01267  Uiso   1.00
Br74   Br    0.21930   0.82710   0.21070   0.01267  Uiso   1.00
Br75   Br    0.11993   0.88091   0.11721   0.01267  Uiso   1.00
Br76   Br    0.17820   0.08820   0.12970   0.01267  Uiso   1.00
Br77   Br    0.77170   0.41550   0.75570   0.01267  Uiso   1.00
Br78   Br    0.71930   0.67290   0.78930   0.01267  Uiso   1.00
Br79   Br    0.61993   0.61909   0.88279   0.01267  Uiso   1.00
Br80   Br    0.67820   0.41180   0.87030   0.01267  Uiso   1.00
Br81   Br    0.74430   0.22830   0.91550   0.01267  Uiso   1.00
Br82   Br    0.71070   0.28070   0.17290   0.01267  Uiso   1.00
Br83   Br    0.61721   0.38007   0.11909   0.01267  Uiso   1.00
Br84   Br    0.62970   0.32180   0.91180   0.01267  Uiso   1.00
Br85   Br    0.25570   0.72830   0.58450   0.01267  Uiso   1.00
Br86   Br    0.28930   0.78070   0.32710   0.01267  Uiso   1.00
Br87   Br    0.38279   0.88007   0.38091   0.01267  Uiso   1.00
Br88   Br    0.37030   0.82180   0.58820   0.01267  Uiso   1.00
Br89   Br    0.24430   0.27170   0.08450   0.01267  Uiso   1.00
Br90   Br    0.21070   0.21930   0.82710   0.01267  Uiso   1.00
Br91   Br    0.11721   0.11993   0.88091   0.01267  Uiso   1.00
Br92   Br    0.12970   0.17820   0.08820   0.01267  Uiso   1.00
Br93   Br    0.75570   0.77170   0.41550   0.01267  Uiso   1.00
Br94   Br    0.78930   0.71930   0.67290   0.01267  Uiso   1.00
Br95   Br    0.88279   0.61993   0.61909   0.01267  Uiso   1.00
Br96   Br    0.87030   0.67820   0.41180   0.01267  Uiso   1.00
N1     N     0.93040   0.34910   0.71870   0.01267  Uiso   1.00
N2     N     0.93850   0.29600   0.66400   0.01267  Uiso   1.00
N3     N     0.00590   0.28740   0.68610   0.01267  Uiso   1.00
N4     N     0.99870   0.33560   0.73740   0.01267  Uiso   1.00
N5     N     0.56960   0.65090   0.21870   0.01267  Uiso   1.00
N6     N     0.56150   0.70400   0.16400   0.01267  Uiso   1.00
N7     N     0.49410   0.71260   0.18610   0.01267  Uiso   1.00
N8     N     0.50130   0.66440   0.23740   0.01267  Uiso   1.00
N9     N     0.06960   0.84910   0.78130   0.01267  Uiso   1.00
N10    N     0.06150   0.79600   0.83600   0.01267  Uiso   1.00
N11    N     0.99410   0.78740   0.81390   0.01267  Uiso   1.00
N12    N     0.00130   0.83560   0.76260   0.01267  Uiso   1.00
N13    N     0.43040   0.15090   0.28130   0.01267  Uiso   1.00
N14    N     0.43850   0.20400   0.33600   0.01267  Uiso   1.00
N15    N     0.50590   0.21260   0.31390   0.01267  Uiso   1.00
N16    N     0.49870   0.16440   0.26260   0.01267  Uiso   1.00
N17    N     0.71870   0.93040   0.34910   0.01267  Uiso   1.00
N18    N     0.66400   0.93850   0.29600   0.01267  Uiso   1.00
N19    N     0.68610   0.00590   0.28740   0.01267  Uiso   1.00
N20    N     0.73740   0.99870   0.33560   0.01267  Uiso   1.00
N21    N     0.21870   0.56960   0.65090   0.01267  Uiso   1.00
N22    N     0.16400   0.56150   0.70400   0.01267  Uiso   1.00
N23    N     0.18610   0.49410   0.71260   0.01267  Uiso   1.00
N24    N     0.23740   0.50130   0.66440   0.01267  Uiso   1.00
N25    N     0.78130   0.06960   0.84910   0.01267  Uiso   1.00
N26    N     0.83600   0.06150   0.79600   0.01267  Uiso   1.00
N27    N     0.81390   0.99410   0.78740   0.01267  Uiso   1.00
N28    N     0.76260   0.00130   0.83560   0.01267  Uiso   1.00
N29    N     0.28130   0.43040   0.15090   0.01267  Uiso   1.00
N30    N     0.33600   0.43850   0.20400   0.01267  Uiso   1.00
N31    N     0.31390   0.50590   0.21260   0.01267  Uiso   1.00
N32    N     0.26260   0.49870   0.16440   0.01267  Uiso   1.00
N33    N     0.34910   0.71870   0.93040   0.01267  Uiso   1.00
N34    N     0.29600   0.66400   0.93850   0.01267  Uiso   1.00
N35    N     0.28740   0.68610   0.00590   0.01267  Uiso   1.00
N36    N     0.33560   0.73740   0.99870   0.01267  Uiso   1.00
N37    N     0.65090   0.21870   0.56960   0.01267  Uiso   1.00
N38    N     0.70400   0.16400   0.56150   0.01267  Uiso   1.00
N39    N     0.71260   0.18610   0.49410   0.01267  Uiso   1.00
N40    N     0.66440   0.23740   0.50130   0.01267  Uiso   1.00
N41    N     0.84910   0.78130   0.06960   0.01267  Uiso   1.00
N42    N     0.79600   0.83600   0.06150   0.01267  Uiso   1.00
N43    N     0.78740   0.81390   0.99410   0.01267  Uiso   1.00
N44    N     0.83560   0.76260   0.00130   0.01267  Uiso   1.00
N45    N     0.15090   0.28130   0.43040   0.01267  Uiso   1.00
N46    N     0.20400   0.33600   0.43850   0.01267  Uiso   1.00
N47    N     0.21260   0.31390   0.50590   0.01267  Uiso   1.00
N48    N     0.16440   0.26260   0.49870   0.01267  Uiso   1.00
N49    N     0.06960   0.65090   0.28130   0.01267  Uiso   1.00
N50    N     0.06150   0.70400   0.33600   0.01267  Uiso   1.00
N51    N     0.99410   0.71260   0.31390   0.01267  Uiso   1.00
N52    N     0.00130   0.66440   0.26260   0.01267  Uiso   1.00
N53    N     0.43040   0.34910   0.78130   0.01267  Uiso   1.00
N54    N     0.43850   0.29600   0.83600   0.01267  Uiso   1.00
N55    N     0.50590   0.28740   0.81390   0.01267  Uiso   1.00
N56    N     0.49870   0.33560   0.76260   0.01267  Uiso   1.00
N57    N     0.93040   0.15090   0.21870   0.01267  Uiso   1.00
N58    N     0.93850   0.20400   0.16400   0.01267  Uiso   1.00
N59    N     0.00590   0.21260   0.18610   0.01267  Uiso   1.00
N60    N     0.99870   0.16440   0.23740   0.01267  Uiso   1.00
N61    N     0.56960   0.84910   0.71870   0.01267  Uiso   1.00
N62    N     0.56150   0.79600   0.66400   0.01267  Uiso   1.00
N63    N     0.49410   0.78740   0.68610   0.01267  Uiso   1.00
N64    N     0.50130   0.83560   0.73740   0.01267  Uiso   1.00
N65    N     0.28130   0.06960   0.65090   0.01267  Uiso   1.00
N66    N     0.33600   0.06150   0.70400   0.01267  Uiso   1.00
N67    N     0.31390   0.99410   0.71260   0.01267  Uiso   1.00
N68    N     0.26260   0.00130   0.66440   0.01267  Uiso   1.00
N69    N     0.78130   0.43040   0.34910   0.01267  Uiso   1.00
N70    N     0.83600   0.43850   0.29600   0.01267  Uiso   1.00
N71    N     0.81390   0.50590   0.28740   0.01267  Uiso   1.00
N72    N     0.76260   0.49870   0.33560   0.01267  Uiso   1.00
N73    N     0.21870   0.93040   0.15090   0.01267  Uiso   1.00
N74    N     0.16400   0.93850   0.20400   0.01267  Uiso   1.00
N75    N     0.18610   0.00590   0.21260   0.01267  Uiso   1.00
N76    N     0.23740   0.99870   0.16440   0.01267  Uiso   1.00
N77    N     0.71870   0.56960   0.84910   0.01267  Uiso   1.00
N78    N     0.66400   0.56150   0.79600   0.01267  Uiso   1.00
N79    N     0.68610   0.49410   0.78740   0.01267  Uiso   1.00
N80    N     0.73740   0.50130   0.83560   0.01267  Uiso   1.00
N81    N     0.65090   0.28130   0.06960   0.01267  Uiso   1.00
N82    N     0.70400   0.33600   0.06150   0.01267  Uiso   1.00
N83    N     0.71260   0.31390   0.99410   0.01267  Uiso   1.00
N84    N     0.66440   0.26260   0.00130   0.01267  Uiso   1.00
N85    N     0.34910   0.78130   0.43040   0.01267  Uiso   1.00
N86    N     0.29600   0.83600   0.43850   0.01267  Uiso   1.00
N87    N     0.28740   0.81390   0.50590   0.01267  Uiso   1.00
N88    N     0.33560   0.76260   0.49870   0.01267  Uiso   1.00
N89    N     0.15090   0.21870   0.93040   0.01267  Uiso   1.00
N90    N     0.20400   0.16400   0.93850   0.01267  Uiso   1.00
N91    N     0.21260   0.18610   0.00590   0.01267  Uiso   1.00
N92    N     0.16440   0.23740   0.99870   0.01267  Uiso   1.00
N93    N     0.84910   0.71870   0.56960   0.01267  Uiso   1.00
N94    N     0.79600   0.66400   0.56150   0.01267  Uiso   1.00
N95    N     0.78740   0.68610   0.49410   0.01267  Uiso   1.00
N96    N     0.83560   0.73740   0.50130   0.01267  Uiso   1.00
O1     O     0.95230   0.21140   0.52118   0.01267  Uiso   1.00
O2     O     0.96172   0.15454   0.52133   0.01267  Uiso   1.00
O3     O     0.01072   0.09860   0.62195   0.01267  Uiso   1.00
O4     O     0.01220   0.12640   0.67170   0.01267  Uiso   1.00
O5     O     0.92640   0.34240   0.89611   0.01267  Uiso   1.00
O6     O     0.94189   0.38878   0.92581   0.01267  Uiso   1.00
O7     O     0.95879   0.49877   0.85867   0.01267  Uiso   1.00
O8     O     0.96050   0.49423   0.80214   0.01267  Uiso   1.00
O9     O     0.93348   0.31680   0.95616   0.01267  Uiso   1.00
O10    O     0.54770   0.78860   0.02118   0.01267  Uiso   1.00
O11    O     0.53828   0.84546   0.02133   0.01267  Uiso   1.00
O12    O     0.48928   0.90140   0.12195   0.01267  Uiso   1.00
O13    O     0.48780   0.87360   0.17170   0.01267  Uiso   1.00
O14    O     0.57360   0.65760   0.39611   0.01267  Uiso   1.00
O15    O     0.55811   0.61122   0.42581   0.01267  Uiso   1.00
O16    O     0.54121   0.50123   0.35867   0.01267  Uiso   1.00
O17    O     0.53950   0.50577   0.30214   0.01267  Uiso   1.00
O18    O     0.56652   0.68320   0.45616   0.01267  Uiso   1.00
O19    O     0.04770   0.71140   0.97882   0.01267  Uiso   1.00
O20    O     0.03828   0.65454   0.97867   0.01267  Uiso   1.00
O21    O     0.98928   0.59860   0.87805   0.01267  Uiso   1.00
O22    O     0.98780   0.62640   0.82830   0.01267  Uiso   1.00
O23    O     0.07360   0.84240   0.60389   0.01267  Uiso   1.00
O24    O     0.05811   0.88878   0.57419   0.01267  Uiso   1.00
O25    O     0.04121   0.99877   0.64133   0.01267  Uiso   1.00
O26    O     0.03950   0.99423   0.69786   0.01267  Uiso   1.00
O27    O     0.06652   0.81680   0.54384   0.01267  Uiso   1.00
O28    O     0.45230   0.28860   0.47882   0.01267  Uiso   1.00
O29    O     0.46172   0.34546   0.47867   0.01267  Uiso   1.00
O30    O     0.51072   0.40140   0.37805   0.01267  Uiso   1.00
O31    O     0.51220   0.37360   0.32830   0.01267  Uiso   1.00
O32    O     0.42640   0.15760   0.10389   0.01267  Uiso   1.00
O33    O     0.44189   0.11122   0.07419   0.01267  Uiso   1.00
O34    O     0.45879   0.00123   0.14133   0.01267  Uiso   1.00
O35    O     0.46050   0.00577   0.19786   0.01267  Uiso   1.00
O36    O     0.43348   0.18320   0.04384   0.01267  Uiso   1.00
O37    O     0.52118   0.95230   0.21140   0.01267  Uiso   1.00
O38    O     0.52133   0.96172   0.15454   0.01267  Uiso   1.00
O39    O     0.62195   0.01072   0.09860   0.01267  Uiso   1.00
O40    O     0.67170   0.01220   0.12640   0.01267  Uiso   1.00
O41    O     0.89611   0.92640   0.34240   0.01267  Uiso   1.00
O42    O     0.92581   0.94189   0.38878   0.01267  Uiso   1.00
O43    O     0.85867   0.95879   0.49877   0.01267  Uiso   1.00
O44    O     0.80214   0.96050   0.49423   0.01267  Uiso   1.00
O45    O     0.95616   0.93348   0.31680   0.01267  Uiso   1.00
O46    O     0.02118   0.54770   0.78860   0.01267  Uiso   1.00
O47    O     0.02133   0.53828   0.84546   0.01267  Uiso   1.00
O48    O     0.12195   0.48928   0.90140   0.01267  Uiso   1.00
O49    O     0.17170   0.48780   0.87360   0.01267  Uiso   1.00
O50    O     0.39611   0.57360   0.65760   0.01267  Uiso   1.00
O51    O     0.42581   0.55811   0.61122   0.01267  Uiso   1.00
O52    O     0.35867   0.54121   0.50123   0.01267  Uiso   1.00
O53    O     0.30214   0.53950   0.50577   0.01267  Uiso   1.00
O54    O     0.45616   0.56652   0.68320   0.01267  Uiso   1.00
O55    O     0.97882   0.04770   0.71140   0.01267  Uiso   1.00
O56    O     0.97867   0.03828   0.65454   0.01267  Uiso   1.00
O57    O     0.87805   0.98928   0.59860   0.01267  Uiso   1.00
O58    O     0.82830   0.98780   0.62640   0.01267  Uiso   1.00
O59    O     0.60389   0.07360   0.84240   0.01267  Uiso   1.00
O60    O     0.57419   0.05811   0.88878   0.01267  Uiso   1.00
O61    O     0.64133   0.04121   0.99877   0.01267  Uiso   1.00
O62    O     0.69786   0.03950   0.99423   0.01267  Uiso   1.00
O63    O     0.54384   0.06652   0.81680   0.01267  Uiso   1.00
O64    O     0.47882   0.45230   0.28860   0.01267  Uiso   1.00
O65    O     0.47867   0.46172   0.34546   0.01267  Uiso   1.00
O66    O     0.37805   0.51072   0.40140   0.01267  Uiso   1.00
O67    O     0.32830   0.51220   0.37360   0.01267  Uiso   1.00
O68    O     0.10389   0.42640   0.15760   0.01267  Uiso   1.00
O69    O     0.07419   0.44189   0.11122   0.01267  Uiso   1.00
O70    O     0.14133   0.45879   0.00123   0.01267  Uiso   1.00
O71    O     0.19786   0.46050   0.00577   0.01267  Uiso   1.00
O72    O     0.04384   0.43348   0.18320   0.01267  Uiso   1.00
O73    O     0.21140   0.52118   0.95230   0.01267  Uiso   1.00
O74    O     0.15454   0.52133   0.96172   0.01267  Uiso   1.00
O75    O     0.09860   0.62195   0.01072   0.01267  Uiso   1.00
O76    O     0.12640   0.67170   0.01220   0.01267  Uiso   1.00
O77    O     0.34240   0.89611   0.92640   0.01267  Uiso   1.00
O78    O     0.38878   0.92581   0.94189   0.01267  Uiso   1.00
O79    O     0.49877   0.85867   0.95879   0.01267  Uiso   1.00
O80    O     0.49423   0.80214   0.96050   0.01267  Uiso   1.00
O81    O     0.31680   0.95616   0.93348   0.01267  Uiso   1.00
O82    O     0.78860   0.02118   0.54770   0.01267  Uiso   1.00
O83    O     0.84546   0.02133   0.53828   0.01267  Uiso   1.00
O84    O     0.90140   0.12195   0.48928   0.01267  Uiso   1.00
O85    O     0.87360   0.17170   0.48780   0.01267  Uiso   1.00
O86    O     0.65760   0.39611   0.57360   0.01267  Uiso   1.00
O87    O     0.61122   0.42581   0.55811   0.01267  Uiso   1.00
O88    O     0.50123   0.35867   0.54121   0.01267  Uiso   1.00
O89    O     0.50577   0.30214   0.53950   0.01267  Uiso   1.00
O90    O     0.68320   0.45616   0.56652   0.01267  Uiso   1.00
O91    O     0.71140   0.97882   0.04770   0.01267  Uiso   1.00
O92    O     0.65454   0.97867   0.03828   0.01267  Uiso   1.00
O93    O     0.59860   0.87805   0.98928   0.01267  Uiso   1.00
O94    O     0.62640   0.82830   0.98780   0.01267  Uiso   1.00
O95    O     0.84240   0.60389   0.07360   0.01267  Uiso   1.00
O96    O     0.88878   0.57419   0.05811   0.01267  Uiso   1.00
O97    O     0.99877   0.64133   0.04121   0.01267  Uiso   1.00
O98    O     0.99423   0.69786   0.03950   0.01267  Uiso   1.00
O99    O     0.81680   0.54384   0.06652   0.01267  Uiso   1.00
O100   O     0.28860   0.47882   0.45230   0.01267  Uiso   1.00
O101   O     0.34546   0.47867   0.46172   0.01267  Uiso   1.00
O102   O     0.40140   0.37805   0.51072   0.01267  Uiso   1.00
O103   O     0.37360   0.32830   0.51220   0.01267  Uiso   1.00
O104   O     0.15760   0.10389   0.42640   0.01267  Uiso   1.00
O105   O     0.11122   0.07419   0.44189   0.01267  Uiso   1.00
O106   O     0.00123   0.14133   0.45879   0.01267  Uiso   1.00
O107   O     0.00577   0.19786   0.46050   0.01267  Uiso   1.00
O108   O     0.18320   0.04384   0.43348   0.01267  Uiso   1.00
O109   O     0.04770   0.78860   0.47882   0.01267  Uiso   1.00
O110   O     0.03828   0.84546   0.47867   0.01267  Uiso   1.00
O111   O     0.98928   0.90140   0.37805   0.01267  Uiso   1.00
O112   O     0.98780   0.87360   0.32830   0.01267  Uiso   1.00
O113   O     0.07360   0.65760   0.10389   0.01267  Uiso   1.00
O114   O     0.05811   0.61122   0.07419   0.01267  Uiso   1.00
O115   O     0.04121   0.50123   0.14133   0.01267  Uiso   1.00
O116   O     0.03950   0.50577   0.19786   0.01267  Uiso   1.00
O117   O     0.06652   0.68320   0.04384   0.01267  Uiso   1.00
O118   O     0.45230   0.21140   0.97882   0.01267  Uiso   1.00
O119   O     0.46172   0.15454   0.97867   0.01267  Uiso   1.00
O120   O     0.51072   0.09860   0.87805   0.01267  Uiso   1.00
O121   O     0.51220   0.12640   0.82830   0.01267  Uiso   1.00
O122   O     0.42640   0.34240   0.60389   0.01267  Uiso   1.00
O123   O     0.44189   0.38878   0.57419   0.01267  Uiso   1.00
O124   O     0.45879   0.49877   0.64133   0.01267  Uiso   1.00
O125   O     0.46050   0.49423   0.69786   0.01267  Uiso   1.00
O126   O     0.43348   0.31680   0.54384   0.01267  Uiso   1.00
O127   O     0.95230   0.28860   0.02118   0.01267  Uiso   1.00
O128   O     0.96172   0.34546   0.02133   0.01267  Uiso   1.00
O129   O     0.01072   0.40140   0.12195   0.01267  Uiso   1.00
O130   O     0.01220   0.37360   0.17170   0.01267  Uiso   1.00
O131   O     0.92640   0.15760   0.39611   0.01267  Uiso   1.00
O132   O     0.94189   0.11122   0.42581   0.01267  Uiso   1.00
O133   O     0.95879   0.00123   0.35867   0.01267  Uiso   1.00
O134   O     0.96050   0.00577   0.30214   0.01267  Uiso   1.00
O135   O     0.93348   0.18320   0.45616   0.01267  Uiso   1.00
O136   O     0.54770   0.71140   0.52118   0.01267  Uiso   1.00
O137   O     0.53828   0.65454   0.52133   0.01267  Uiso   1.00
O138   O     0.48928   0.59860   0.62195   0.01267  Uiso   1.00
O139   O     0.48780   0.62640   0.67170   0.01267  Uiso   1.00
O140   O     0.57360   0.84240   0.89611   0.01267  Uiso   1.00
O141   O     0.55811   0.88878   0.92581   0.01267  Uiso   1.00
O142   O     0.54121   0.99877   0.85867   0.01267  Uiso   1.00
O143   O     0.53950   0.99423   0.80214   0.01267  Uiso   1.00
O144   O     0.56652   0.81680   0.95616   0.01267  Uiso   1.00
O145   O     0.47882   0.04770   0.78860   0.01267  Uiso   1.00
O146   O     0.47867   0.03828   0.84546   0.01267  Uiso   1.00
O147   O     0.37805   0.98928   0.90140   0.01267  Uiso   1.00
O148   O     0.32830   0.98780   0.87360   0.01267  Uiso   1.00
O149   O     0.10389   0.07360   0.65760   0.01267  Uiso   1.00
O150   O     0.07419   0.05811   0.61122   0.01267  Uiso   1.00
O151   O     0.14133   0.04121   0.50123   0.01267  Uiso   1.00
O152   O     0.19786   0.03950   0.50577   0.01267  Uiso   1.00
O153   O     0.04384   0.06652   0.68320   0.01267  Uiso   1.00
O154   O     0.97882   0.45230   0.21140   0.01267  Uiso   1.00
O155   O     0.97867   0.46172   0.15454   0.01267  Uiso   1.00
O156   O     0.87805   0.51072   0.09860   0.01267  Uiso   1.00
O157   O     0.82830   0.51220   0.12640   0.01267  Uiso   1.00
O158   O     0.60389   0.42640   0.34240   0.01267  Uiso   1.00
O159   O     0.57419   0.44189   0.38878   0.01267  Uiso   1.00
O160   O     0.64133   0.45879   0.49877   0.01267  Uiso   1.00
O161   O     0.69786   0.46050   0.49423   0.01267  Uiso   1.00
O162   O     0.54384   0.43348   0.31680   0.01267  Uiso   1.00
O163   O     0.02118   0.95230   0.28860   0.01267  Uiso   1.00
O164   O     0.02133   0.96172   0.34546   0.01267  Uiso   1.00
O165   O     0.12195   0.01072   0.40140   0.01267  Uiso   1.00
O166   O     0.17170   0.01220   0.37360   0.01267  Uiso   1.00
O167   O     0.39611   0.92640   0.15760   0.01267  Uiso   1.00
O168   O     0.42581   0.94189   0.11122   0.01267  Uiso   1.00
O169   O     0.35867   0.95879   0.00123   0.01267  Uiso   1.00
O170   O     0.30214   0.96050   0.00577   0.01267  Uiso   1.00
O171   O     0.45616   0.93348   0.18320   0.01267  Uiso   1.00
O172   O     0.52118   0.54770   0.71140   0.01267  Uiso   1.00
O173   O     0.52133   0.53828   0.65454   0.01267  Uiso   1.00
O174   O     0.62195   0.48928   0.59860   0.01267  Uiso   1.00
O175   O     0.67170   0.48780   0.62640   0.01267  Uiso   1.00
O176   O     0.89611   0.57360   0.84240   0.01267  Uiso   1.00
O177   O     0.92581   0.55811   0.88878   0.01267  Uiso   1.00
O178   O     0.85867   0.54121   0.99877   0.01267  Uiso   1.00
O179   O     0.80214   0.53950   0.99423   0.01267  Uiso   1.00
O180   O     0.95616   0.56652   0.81680   0.01267  Uiso   1.00
O181   O     0.78860   0.47882   0.04770   0.01267  Uiso   1.00
O182   O     0.84546   0.47867   0.03828   0.01267  Uiso   1.00
O183   O     0.90140   0.37805   0.98928   0.01267  Uiso   1.00
O184   O     0.87360   0.32830   0.98780   0.01267  Uiso   1.00
O185   O     0.65760   0.10389   0.07360   0.01267  Uiso   1.00
O186   O     0.61122   0.07419   0.05811   0.01267  Uiso   1.00
O187   O     0.50123   0.14133   0.04121   0.01267  Uiso   1.00
O188   O     0.50577   0.19786   0.03950   0.01267  Uiso   1.00
O189   O     0.68320   0.04384   0.06652   0.01267  Uiso   1.00
O190   O     0.21140   0.97882   0.45230   0.01267  Uiso   1.00
O191   O     0.15454   0.97867   0.46172   0.01267  Uiso   1.00
O192   O     0.09860   0.87805   0.51072   0.01267  Uiso   1.00
O193   O     0.12640   0.82830   0.51220   0.01267  Uiso   1.00
O194   O     0.34240   0.60389   0.42640   0.01267  Uiso   1.00
O195   O     0.38878   0.57419   0.44189   0.01267  Uiso   1.00
O196   O     0.49877   0.64133   0.45879   0.01267  Uiso   1.00
O197   O     0.49423   0.69786   0.46050   0.01267  Uiso   1.00
O198   O     0.31680   0.54384   0.43348   0.01267  Uiso   1.00
O199   O     0.28860   0.02118   0.95230   0.01267  Uiso   1.00
O200   O     0.34546   0.02133   0.96172   0.01267  Uiso   1.00
O201   O     0.40140   0.12195   0.01072   0.01267  Uiso   1.00
O202   O     0.37360   0.17170   0.01220   0.01267  Uiso   1.00
O203   O     0.15760   0.39611   0.92640   0.01267  Uiso   1.00
O204   O     0.11122   0.42581   0.94189   0.01267  Uiso   1.00
O205   O     0.00123   0.35867   0.95879   0.01267  Uiso   1.00
O206   O     0.00577   0.30214   0.96050   0.01267  Uiso   1.00
O207   O     0.18320   0.45616   0.93348   0.01267  Uiso   1.00
O208   O     0.71140   0.52118   0.54770   0.01267  Uiso   1.00
O209   O     0.65454   0.52133   0.53828   0.01267  Uiso   1.00
O210   O     0.59860   0.62195   0.48928   0.01267  Uiso   1.00
O211   O     0.62640   0.67170   0.48780   0.01267  Uiso   1.00
O212   O     0.84240   0.89611   0.57360   0.01267  Uiso   1.00
O213   O     0.88878   0.92581   0.55811   0.01267  Uiso   1.00
O214   O     0.99877   0.85867   0.54121   0.01267  Uiso   1.00
O215   O     0.99423   0.80214   0.53950   0.01267  Uiso   1.00
O216   O     0.81680   0.95616   0.56652   0.01267  Uiso   1.00
