data_ic101935f_si_002
_audit_creation_date              2015-10-12
_audit_creation_method            'Materials Studio'
_symmetry_space_group_name_H-M    'P1'
_symmetry_Int_Tables_number       1
_symmetry_cell_setting            triclinic
loop_
_symmetry_equiv_pos_as_xyz
  x,y,z
_cell_length_a                    27.2600
_cell_length_b                    27.2600
_cell_length_c                    27.2600
_cell_angle_alpha                 90.0000
_cell_angle_beta                  90.0000
_cell_angle_gamma                 90.0000
loop_
_atom_site_label
_atom_site_type_symbol
_atom_site_fract_x
_atom_site_fract_y
_atom_site_fract_z
_atom_site_U_iso_or_equiv
_atom_site_adp_type
_atom_site_occupancy
N1     N     0.24823   0.29470   0.38923   0.00000  Uiso   1.00
H2     H     0.25672   0.26601   0.41323   0.00000  Uiso   1.00
N3     N     0.27777   0.34275   0.32001   0.00000  Uiso   1.00
C4     C     0.13050   0.38806   0.43326   0.00000  Uiso   1.00
C5     C     0.20914   0.32738   0.40316   0.00000  Uiso   1.00
C6     C     0.28113   0.30223   0.34877   0.00000  Uiso   1.00
C7     C     0.15994   0.36383   0.46803   0.00000  Uiso   1.00
H8     H     0.15306   0.36798   0.50693   0.00000  Uiso   1.00
C9     C     0.19860   0.33373   0.45307   0.00000  Uiso   1.00
H10    H     0.22060   0.31532   0.48056   0.00000  Uiso   1.00
C11    C     0.14069   0.38129   0.38311   0.00000  Uiso   1.00
H12    H     0.11831   0.39885   0.35539   0.00000  Uiso   1.00
C13    C     0.17941   0.35094   0.36818   0.00000  Uiso   1.00
H14    H     0.18513   0.34503   0.32937   0.00000  Uiso   1.00
N15    N     0.38733   0.24061   0.29295   0.00000  Uiso   1.00
H16    H     0.40364   0.24162   0.25826   0.00000  Uiso   1.00
N17    N     0.31734   0.26910   0.34020   0.00000  Uiso   1.00
C18    C     0.43153   0.12397   0.38741   0.00000  Uiso   1.00
C19    C     0.40056   0.20118   0.32545   0.00000  Uiso   1.00
C20    C     0.34999   0.27628   0.30322   0.00000  Uiso   1.00
C21    C     0.42846   0.11714   0.33635   0.00000  Uiso   1.00
H22    H     0.43822   0.08231   0.31992   0.00000  Uiso   1.00
C23    C     0.41363   0.15554   0.30574   0.00000  Uiso   1.00
H24    H     0.41216   0.14966   0.26648   0.00000  Uiso   1.00
C25    C     0.41894   0.17000   0.40710   0.00000  Uiso   1.00
H26    H     0.42118   0.17656   0.44622   0.00000  Uiso   1.00
C27    C     0.40356   0.20823   0.37642   0.00000  Uiso   1.00
H28    H     0.39520   0.24358   0.39242   0.00000  Uiso   1.00
N29    N     0.30511   0.39344   0.25294   0.00000  Uiso   1.00
H30    H     0.27970   0.41952   0.26500   0.00000  Uiso   1.00
N31    N     0.34589   0.31669   0.27432   0.00000  Uiso   1.00
C32    C     0.39261   0.43692   0.13056   0.00000  Uiso   1.00
C33    C     0.37238   0.47169   0.16281   0.00000  Uiso   1.00
H34    H     0.37824   0.51056   0.15710   0.00000  Uiso   1.00
C35    C     0.34439   0.45678   0.20302   0.00000  Uiso   1.00
H36    H     0.32913   0.48434   0.22724   0.00000  Uiso   1.00
C37    C     0.33602   0.40688   0.21223   0.00000  Uiso   1.00
C38    C     0.35543   0.37193   0.17958   0.00000  Uiso   1.00
H39    H     0.34768   0.33331   0.18403   0.00000  Uiso   1.00
C40    C     0.38390   0.38682   0.13942   0.00000  Uiso   1.00
H41    H     0.39837   0.35917   0.11485   0.00000  Uiso   1.00
C42    C     0.30963   0.34995   0.28238   0.00000  Uiso   1.00
N43    N     0.23704   0.68727   0.88898   0.00000  Uiso   1.00
H44    H     0.22712   0.71482   0.91376   0.00000  Uiso   1.00
N45    N     0.21132   0.64219   0.81619   0.00000  Uiso   1.00
C46    C     0.35611   0.59591   0.93393   0.00000  Uiso   1.00
C47    C     0.27659   0.65516   0.90307   0.00000  Uiso   1.00
C48    C     0.20509   0.68035   0.84762   0.00000  Uiso   1.00
C49    C     0.32534   0.61884   0.96841   0.00000  Uiso   1.00
H50    H     0.33145   0.61418   1.00739   0.00000  Uiso   1.00
C51    C     0.28624   0.64819   0.95309   0.00000  Uiso   1.00
H52    H     0.26322   0.66556   0.98041   0.00000  Uiso   1.00
C53    C     0.34681   0.60327   0.88368   0.00000  Uiso   1.00
H54    H     0.37023   0.58672   0.85619   0.00000  Uiso   1.00
C55    C     0.30769   0.63295   0.86837   0.00000  Uiso   1.00
H56    H     0.30279   0.63944   0.82956   0.00000  Uiso   1.00
N57    N     0.09397   0.73724   0.79586   0.00000  Uiso   1.00
H58    H     0.06919   0.72732   0.76832   0.00000  Uiso   1.00
N59    N     0.16676   0.71151   0.84095   0.00000  Uiso   1.00
C60    C     0.04902   0.85630   0.88723   0.00000  Uiso   1.00
C61    C     0.07988   0.77679   0.82798   0.00000  Uiso   1.00
C62    C     0.13533   0.70528   0.80279   0.00000  Uiso   1.00
C63    C     0.01454   0.82553   0.86430   0.00000  Uiso   1.00
H64    H    -0.02444   0.83163   0.86896   0.00000  Uiso   1.00
C65    C     0.02986   0.78643   0.83495   0.00000  Uiso   1.00
H66    H     0.00254   0.76341   0.81758   0.00000  Uiso   1.00
C67    C     0.09926   0.84700   0.87987   0.00000  Uiso   1.00
H68    H     0.12676   0.87042   0.89642   0.00000  Uiso   1.00
C69    C     0.11458   0.80788   0.85019   0.00000  Uiso   1.00
H70    H     0.15339   0.80298   0.84370   0.00000  Uiso   1.00
N71    N     0.18708   0.59416   0.74590   0.00000  Uiso   1.00
H72    H     0.21463   0.56938   0.75582   0.00000  Uiso   1.00
N73    N     0.14200   0.66695   0.77163   0.00000  Uiso   1.00
C74    C     0.09572   0.54921   0.62684   0.00000  Uiso   1.00
C75    C     0.11865   0.51473   0.65761   0.00000  Uiso   1.00
H76    H     0.11399   0.47575   0.65150   0.00000  Uiso   1.00
C77    C     0.14800   0.53005   0.69670   0.00000  Uiso   1.00
H78    H     0.16537   0.50273   0.71973   0.00000  Uiso   1.00
C79    C     0.15497   0.58007   0.70635   0.00000  Uiso   1.00
C80    C     0.13276   0.61477   0.67526   0.00000  Uiso   1.00
H81    H     0.13925   0.65358   0.68016   0.00000  Uiso   1.00
C82    C     0.10308   0.59946   0.63614   0.00000  Uiso   1.00
H83    H     0.08653   0.62695   0.61272   0.00000  Uiso   1.00
C84    C     0.18016   0.63552   0.77786   0.00000  Uiso   1.00
N85    N     0.73001   0.80530   0.08970   0.00000  Uiso   1.00
H86    H     0.71795   0.77989   0.06362   0.00000  Uiso   1.00
N87    N     0.70863   0.84608   0.16645   0.00000  Uiso   1.00
C88    C     0.85238   0.89280   0.04622   0.00000  Uiso   1.00
C89    C     0.77071   0.83621   0.07626   0.00000  Uiso   1.00
C90    C     0.70057   0.80982   0.13319   0.00000  Uiso   1.00
C91    C     0.82013   0.87257   0.01145   0.00000  Uiso   1.00
H92    H     0.82585   0.87844  -0.02742   0.00000  Uiso   1.00
C93    C     0.77992   0.84458   0.02636   0.00000  Uiso   1.00
H94    H     0.75571   0.82933  -0.00119   0.00000  Uiso   1.00
C95    C     0.84352   0.88409   0.09632   0.00000  Uiso   1.00
H96    H     0.86810   0.89856   0.12397   0.00000  Uiso   1.00
C97    C     0.80337   0.85563   0.11121   0.00000  Uiso   1.00
H98    H     0.79892   0.84788   0.14983   0.00000  Uiso   1.00
N99    N     0.59372   0.74842   0.18844   0.00000  Uiso   1.00
H100   H     0.56972   0.75690   0.21713   0.00000  Uiso   1.00
N101   N     0.66294   0.77796   0.14039   0.00000  Uiso   1.00
C102   C     0.54969   0.63069   0.09508   0.00000  Uiso   1.00
C103   C     0.57979   0.70933   0.15575   0.00000  Uiso   1.00
C104   C     0.63418   0.78132   0.18091   0.00000  Uiso   1.00
C105   C     0.51492   0.66013   0.11930   0.00000  Uiso   1.00
H106   H     0.47602   0.65325   0.11516   0.00000  Uiso   1.00
C107   C     0.52988   0.69879   0.14941   0.00000  Uiso   1.00
H108   H     0.50239   0.72079   0.16781   0.00000  Uiso   1.00
C109   C     0.59984   0.64088   0.10185   0.00000  Uiso   1.00
H110   H     0.62756   0.61850   0.08429   0.00000  Uiso   1.00
C111   C     0.61477   0.67960   0.13219   0.00000  Uiso   1.00
H112   H     0.65358   0.68532   0.13811   0.00000  Uiso   1.00
N113   N     0.69000   0.88752   0.24253   0.00000  Uiso   1.00
H114   H     0.72469   0.90383   0.24152   0.00000  Uiso   1.00
N115   N     0.64274   0.81753   0.21404   0.00000  Uiso   1.00
C116   C     0.59554   0.93172   0.35917   0.00000  Uiso   1.00
C117   C     0.57585   0.91913   0.31314   0.00000  Uiso   1.00
H118   H     0.53673   0.92137   0.30657   0.00000  Uiso   1.00
C119   C     0.60652   0.90375   0.27491   0.00000  Uiso   1.00
H120   H     0.59052   0.89539   0.23956   0.00000  Uiso   1.00
C121   C     0.65750   0.90075   0.28196   0.00000  Uiso   1.00
C122   C     0.67721   0.91382   0.32760   0.00000  Uiso   1.00
H123   H     0.71647   0.91235   0.33348   0.00000  Uiso   1.00
C124   C     0.64659   0.92865   0.36600   0.00000  Uiso   1.00
H125   H     0.66302   0.93841   0.40082   0.00000  Uiso   1.00
C126   C     0.67972   0.85018   0.20686   0.00000  Uiso   1.00
N127   N     0.74041   0.19019   0.59562   0.00000  Uiso   1.00
H128   H     0.74143   0.22488   0.57931   0.00000  Uiso   1.00
N129   N     0.76891   0.14294   0.66561   0.00000  Uiso   1.00
C130   C     0.62377   0.09573   0.55142   0.00000  Uiso   1.00
C131   C     0.70099   0.15769   0.58238   0.00000  Uiso   1.00
C132   C     0.77608   0.17992   0.63296   0.00000  Uiso   1.00
C133   C     0.61695   0.14679   0.55449   0.00000  Uiso   1.00
H134   H     0.58212   0.16321   0.54473   0.00000  Uiso   1.00
C135   C     0.65534   0.17740   0.56933   0.00000  Uiso   1.00
H136   H     0.64947   0.21666   0.57079   0.00000  Uiso   1.00
C137   C     0.66981   0.07604   0.56401   0.00000  Uiso   1.00
H138   H     0.67637   0.03692   0.56177   0.00000  Uiso   1.00
C139   C     0.70803   0.10672   0.57939   0.00000  Uiso   1.00
H140   H     0.74339   0.09072   0.58774   0.00000  Uiso   1.00
N141   N     0.89325   0.23020   0.67783   0.00000  Uiso   1.00
H142   H     0.91933   0.21814   0.70325   0.00000  Uiso   1.00
N143   N     0.81650   0.20882   0.63706   0.00000  Uiso   1.00
C144   C     0.93673   0.35258   0.59034   0.00000  Uiso   1.00
C145   C     0.90669   0.27090   0.64693   0.00000  Uiso   1.00
C146   C     0.84976   0.20076   0.67332   0.00000  Uiso   1.00
C147   C     0.97150   0.32033   0.61057   0.00000  Uiso   1.00
H148   H     1.01037   0.32605   0.60471   0.00000  Uiso   1.00
C149   C     0.95659   0.28012   0.63856   0.00000  Uiso   1.00
H150   H     0.98414   0.25590   0.65382   0.00000  Uiso   1.00
C151   C     0.88663   0.34372   0.59905   0.00000  Uiso   1.00
H152   H     0.85898   0.36829   0.58457   0.00000  Uiso   1.00
C153   C     0.87174   0.30356   0.62751   0.00000  Uiso   1.00
H154   H     0.83312   0.29911   0.63526   0.00000  Uiso   1.00
N155   N     0.79451   0.09391   0.73472   0.00000  Uiso   1.00
H156   H     0.76582   0.06991   0.72623   0.00000  Uiso   1.00
N157   N     0.84256   0.16313   0.70518   0.00000  Uiso   1.00
C158   C     0.88787   0.04988   0.85245   0.00000  Uiso   1.00
C159   C     0.86364   0.01512   0.82301   0.00000  Uiso   1.00
H160   H     0.86779  -0.02379   0.82989   0.00000  Uiso   1.00
C161   C     0.83354   0.03007   0.78435   0.00000  Uiso   1.00
H162   H     0.81514   0.00258   0.76235   0.00000  Uiso   1.00
C163   C     0.82719   0.07998   0.77381   0.00000  Uiso   1.00
C164   C     0.85075   0.11496   0.80354   0.00000  Uiso   1.00
H165   H     0.84483   0.15377   0.79782   0.00000  Uiso   1.00
C166   C     0.88110   0.10003   0.84226   0.00000  Uiso   1.00
H167   H     0.89865   0.12775   0.86464   0.00000  Uiso   1.00
C168   C     0.80203   0.13437   0.70182   0.00000  Uiso   1.00
N169   N     0.74036   0.68678   0.59508   0.00000  Uiso   1.00
H170   H     0.73786   0.72076   0.57748   0.00000  Uiso   1.00
N171   N     0.71480   0.64162   0.66769   0.00000  Uiso   1.00
C172   C     0.85862   0.59505   0.54962   0.00000  Uiso   1.00
C173   C     0.78055   0.65519   0.58200   0.00000  Uiso   1.00
C174   C     0.70597   0.67712   0.63378   0.00000  Uiso   1.00
C175   C     0.81374   0.57419   0.56438   0.00000  Uiso   1.00
H176   H     0.80839   0.53485   0.56323   0.00000  Uiso   1.00
C177   C     0.77511   0.60397   0.58054   0.00000  Uiso   1.00
H178   H     0.74060   0.58709   0.59055   0.00000  Uiso   1.00
C179   C     0.86395   0.64631   0.55147   0.00000  Uiso   1.00
H180   H     0.89787   0.66358   0.54007   0.00000  Uiso   1.00
C181   C     0.82510   0.67602   0.56696   0.00000  Uiso   1.00
H182   H     0.82970   0.71547   0.56724   0.00000  Uiso   1.00
N183   N     0.59053   0.72889   0.68124   0.00000  Uiso   1.00
H184   H     0.56494   0.71734   0.70738   0.00000  Uiso   1.00
N185   N     0.66551   0.70587   0.63829   0.00000  Uiso   1.00
C186   C     0.54667   0.85102   0.59351   0.00000  Uiso   1.00
C187   C     0.57687   0.76944   0.65020   0.00000  Uiso   1.00
C188   C     0.63392   0.69938   0.67629   0.00000  Uiso   1.00
C189   C     0.51195   0.81907   0.61433   0.00000  Uiso   1.00
H190   H     0.47304   0.82502   0.60894   0.00000  Uiso   1.00
C191   C     0.52694   0.77892   0.64240   0.00000  Uiso   1.00
H192   H     0.49943   0.75499   0.65816   0.00000  Uiso   1.00
C193   C     0.59681   0.84186   0.60166   0.00000  Uiso   1.00
H194   H     0.62446   0.86615   0.58672   0.00000  Uiso   1.00
C195   C     0.61178   0.80173   0.63012   0.00000  Uiso   1.00
H196   H     0.65048   0.79698   0.63736   0.00000  Uiso   1.00
N197   N     0.69376   0.59767   0.74174   0.00000  Uiso   1.00
H198   H     0.72930   0.58328   0.74217   0.00000  Uiso   1.00
N199   N     0.64286   0.66347   0.70965   0.00000  Uiso   1.00
C200   C     0.59899   0.55189   0.85765   0.00000  Uiso   1.00
C201   C     0.64970   0.55761   0.86535   0.00000  Uiso   1.00
H202   H     0.66586   0.54970   0.90077   0.00000  Uiso   1.00
C203   C     0.68036   0.57289   0.82717   0.00000  Uiso   1.00
H204   H     0.71935   0.57650   0.83381   0.00000  Uiso   1.00
C205   C     0.66104   0.58373   0.78077   0.00000  Uiso   1.00
C206   C     0.61044   0.57792   0.77278   0.00000  Uiso   1.00
H207   H     0.59481   0.58441   0.73688   0.00000  Uiso   1.00
C208   C     0.57971   0.56216   0.81086   0.00000  Uiso   1.00
H209   H     0.54090   0.55782   0.80359   0.00000  Uiso   1.00
C210   C     0.68303   0.63428   0.70541   0.00000  Uiso   1.00
N211   N     0.74558   0.29558   0.09447   0.00000  Uiso   1.00
H212   H     0.74697   0.26112   0.07770   0.00000  Uiso   1.00
N213   N     0.77322   0.34275   0.16499   0.00000  Uiso   1.00
C214   C     0.62812   0.38891   0.05012   0.00000  Uiso   1.00
C215   C     0.70587   0.32774   0.08131   0.00000  Uiso   1.00
C216   C     0.77995   0.30486   0.13328   0.00000  Uiso   1.00
C217   C     0.67385   0.40908   0.06307   0.00000  Uiso   1.00
H218   H     0.67997   0.44828   0.06103   0.00000  Uiso   1.00
C219   C     0.71235   0.37879   0.07859   0.00000  Uiso   1.00
H220   H     0.74748   0.39513   0.08724   0.00000  Uiso   1.00
C221   C     0.62185   0.33778   0.05297   0.00000  Uiso   1.00
H222   H     0.58727   0.32100   0.04294   0.00000  Uiso   1.00
C223   C     0.66052   0.30757   0.06790   0.00000  Uiso   1.00
H224   H     0.65510   0.26823   0.06915   0.00000  Uiso   1.00
N225   N     0.88848   0.24577   0.18756   0.00000  Uiso   1.00
H226   H     0.90525   0.24716   0.22202   0.00000  Uiso   1.00
N227   N     0.81796   0.27341   0.14039   0.00000  Uiso   1.00
C228   C     0.93283   0.12831   0.09424   0.00000  Uiso   1.00
C229   C     0.90164   0.20606   0.15540   0.00000  Uiso   1.00
C230   C     0.84967   0.28015   0.17828   0.00000  Uiso   1.00
C231   C     0.91988   0.17404   0.07406   0.00000  Uiso   1.00
H232   H     0.92191   0.18016   0.03486   0.00000  Uiso   1.00
C233   C     0.90436   0.21254   0.10435   0.00000  Uiso   1.00
H234   H     0.89571   0.24767   0.08801   0.00000  Uiso   1.00
C235   C     0.92998   0.12204   0.14536   0.00000  Uiso   1.00
H236   H     0.94001   0.08746   0.16215   0.00000  Uiso   1.00
C237   C     0.91505   0.16071   0.17557   0.00000  Uiso   1.00
H238   H     0.91379   0.15529   0.21491   0.00000  Uiso   1.00
N239   N     0.79539   0.38867   0.23737   0.00000  Uiso   1.00
H240   H     0.76093   0.40544   0.23598   0.00000  Uiso   1.00
N241   N     0.84256   0.31815   0.20973   0.00000  Uiso   1.00
C242   C     0.88871   0.43302   0.35483   0.00000  Uiso   1.00
C243   C     0.83759   0.43016   0.36110   0.00000  Uiso   1.00
H244   H     0.82081   0.44019   0.39568   0.00000  Uiso   1.00
C245   C     0.80738   0.41524   0.32243   0.00000  Uiso   1.00
H246   H     0.76804   0.41398   0.32786   0.00000  Uiso   1.00
C247   C     0.82755   0.40183   0.27708   0.00000  Uiso   1.00
C248   C     0.87860   0.40455   0.27060   0.00000  Uiso   1.00
H249   H     0.89494   0.39591   0.23546   0.00000  Uiso   1.00
C250   C     0.90889   0.42007   0.30909   0.00000  Uiso   1.00
H251   H     0.94809   0.42211   0.30298   0.00000  Uiso   1.00
C252   C     0.80467   0.34986   0.20299   0.00000  Uiso   1.00
N253   N     0.24121   0.19395   0.88547   0.00000  Uiso   1.00
H254   H     0.24078   0.22949   0.89986   0.00000  Uiso   1.00
N255   N     0.27330   0.14305   0.81967   0.00000  Uiso   1.00
C256   C     0.12529   0.09918   0.93125   0.00000  Uiso   1.00
C257   C     0.20218   0.16123   0.89941   0.00000  Uiso   1.00
C258   C     0.27754   0.18322   0.84886   0.00000  Uiso   1.00
C259   C     0.17208   0.07991   0.92098   0.00000  Uiso   1.00
H260   H     0.17936   0.04109   0.92532   0.00000  Uiso   1.00
C261   C     0.21016   0.11063   0.90522   0.00000  Uiso   1.00
H262   H     0.24607   0.09500   0.89873   0.00000  Uiso   1.00
C263   C     0.11760   0.14989   0.92554   0.00000  Uiso   1.00
H264   H     0.08218   0.16605   0.93345   0.00000  Uiso   1.00
C265   C     0.15578   0.18055   0.91025   0.00000  Uiso   1.00
H266   H     0.14914   0.21955   0.90664   0.00000  Uiso   1.00
N267   N     0.38787   0.24055   0.79636   0.00000  Uiso   1.00
H268   H     0.40547   0.23805   0.76238   0.00000  Uiso   1.00
N269   N     0.31526   0.21499   0.84152   0.00000  Uiso   1.00
C270   C     0.43333   0.35881   0.88809   0.00000  Uiso   1.00
C271   C     0.40095   0.28074   0.82795   0.00000  Uiso   1.00
C272   C     0.34917   0.20616   0.80602   0.00000  Uiso   1.00
C273   C     0.41857   0.31393   0.90894   0.00000  Uiso   1.00
H274   H     0.41972   0.30858   0.94829   0.00000  Uiso   1.00
C275   C     0.40241   0.27530   0.87917   0.00000  Uiso   1.00
H276   H     0.39241   0.24079   0.89605   0.00000  Uiso   1.00
C277   C     0.43147   0.36414   0.83682   0.00000  Uiso   1.00
H278   H     0.44287   0.39806   0.81956   0.00000  Uiso   1.00
C279   C     0.41599   0.32529   0.80712   0.00000  Uiso   1.00
H280   H     0.41571   0.32989   0.76766   0.00000  Uiso   1.00
N281   N     0.30171   0.09072   0.75425   0.00000  Uiso   1.00
H282   H     0.27557   0.06513   0.76580   0.00000  Uiso   1.00
N283   N     0.34466   0.16570   0.77727   0.00000  Uiso   1.00
C284   C     0.38944   0.04685   0.63211   0.00000  Uiso   1.00
C285   C     0.36862   0.01213   0.66407   0.00000  Uiso   1.00
H286   H     0.37401  -0.02677   0.65812   0.00000  Uiso   1.00
C287   C     0.34055   0.02713   0.70422   0.00000  Uiso   1.00
H288   H     0.32479  -0.00038   0.72815   0.00000  Uiso   1.00
C289   C     0.33275   0.07706   0.71370   0.00000  Uiso   1.00
C290   C     0.35283   0.11197   0.68142   0.00000  Uiso   1.00
H291   H     0.34559   0.15067   0.68617   0.00000  Uiso   1.00
C292   C     0.38129   0.09700   0.64128   0.00000  Uiso   1.00
H293   H     0.39624   0.12465   0.61699   0.00000  Uiso   1.00
C294   C     0.30666   0.13411   0.78376   0.00000  Uiso   1.00
N295   N     0.22870   0.80190   0.39242   0.00000  Uiso   1.00
H296   H     0.21715   0.77577   0.41801   0.00000  Uiso   1.00
N297   N     0.20568   0.84485   0.31744   0.00000  Uiso   1.00
C298   C     0.35083   0.88963   0.43628   0.00000  Uiso   1.00
C299   C     0.26924   0.83294   0.40608   0.00000  Uiso   1.00
C300   C     0.19919   0.80685   0.34903   0.00000  Uiso   1.00
C301   C     0.31888   0.86881   0.47100   0.00000  Uiso   1.00
H302   H     0.32483   0.87420   0.50991   0.00000  Uiso   1.00
C303   C     0.27873   0.84074   0.45601   0.00000  Uiso   1.00
H304   H     0.25480   0.82498   0.48352   0.00000  Uiso   1.00
C305   C     0.34167   0.88148   0.38614   0.00000  Uiso   1.00
H306   H     0.36596   0.89643   0.35849   0.00000  Uiso   1.00
C307   C     0.30153   0.85303   0.37116   0.00000  Uiso   1.00
H308   H     0.29678   0.84579   0.33247   0.00000  Uiso   1.00
N309   N     0.09747   0.74140   0.28919   0.00000  Uiso   1.00
H310   H     0.08308   0.74097   0.25365   0.00000  Uiso   1.00
N311   N     0.16328   0.77349   0.34009   0.00000  Uiso   1.00
C312   C     0.05170   0.62549   0.38396   0.00000  Uiso   1.00
C313   C     0.08353   0.70237   0.32191   0.00000  Uiso   1.00
C314   C     0.13409   0.77773   0.29992   0.00000  Uiso   1.00
C315   C     0.06197   0.67228   0.40324   0.00000  Uiso   1.00
H316   H     0.05762   0.67955   0.44205   0.00000  Uiso   1.00
C317   C     0.07772   0.71036   0.37252   0.00000  Uiso   1.00
H318   H     0.08421   0.74626   0.38814   0.00000  Uiso   1.00
C319   C     0.05741   0.61779   0.33325   0.00000  Uiso   1.00
H320   H     0.04950   0.58238   0.31709   0.00000  Uiso   1.00
C321   C     0.07270   0.65598   0.30259   0.00000  Uiso   1.00
H322   H     0.07631   0.64934   0.26360   0.00000  Uiso   1.00
N323   N     0.18659   0.88806   0.24258   0.00000  Uiso   1.00
H324   H     0.22057   0.90565   0.24509   0.00000  Uiso   1.00
N325   N     0.14143   0.81545   0.26815   0.00000  Uiso   1.00
C326   C     0.09486   0.93352   0.12433   0.00000  Uiso   1.00
C327   C     0.14613   0.93167   0.11899   0.00000  Uiso   1.00
H328   H     0.16339   0.94307   0.08508   0.00000  Uiso   1.00
C329   C     0.17583   0.91618   0.15784   0.00000  Uiso   1.00
H330   H     0.21529   0.91591   0.15325   0.00000  Uiso   1.00
C331   C     0.15500   0.90114   0.20240   0.00000  Uiso   1.00
C332   C     0.10378   0.90260   0.20784   0.00000  Uiso   1.00
H333   H     0.08690   0.89259   0.24235   0.00000  Uiso   1.00
C334   C     0.07400   0.91876   0.16921   0.00000  Uiso   1.00
H335   H     0.03466   0.91991   0.17456   0.00000  Uiso   1.00
C336   C     0.17693   0.84936   0.27697   0.00000  Uiso   1.00
Zn337  Zn    0.05534   0.97440  -0.01675   0.00000  Uiso   1.00
Zn338  Zn   -0.01567   1.05749  -0.03000   0.00000  Uiso   1.00
Zn339  Zn   -0.04732   0.95460  -0.04912   0.00000  Uiso   1.00
Zn340  Zn   -0.02843   0.98706   0.05355   0.00000  Uiso   1.00
O341   O    -0.00893   0.99345  -0.01052   0.00000  Uiso   1.00
O342   O     0.09404   1.02277  -0.03966   0.00000  Uiso   1.00
O343   O    -0.05672   1.06483  -0.08130   0.00000  Uiso   1.00
O344   O    -0.01321   0.90807  -0.08041   0.00000  Uiso   1.00
O345   O     0.04163   1.08412  -0.04865   0.00000  Uiso   1.00
O346   O     0.06320   0.92314  -0.05784   0.00000  Uiso   1.00
O347   O    -0.07889   0.98821  -0.09573   0.00000  Uiso   1.00
O348   O    -0.08025   0.94676   0.06101   0.00000  Uiso   1.00
O349   O    -0.03885   1.09629   0.01799   0.00000  Uiso   1.00
O350   O    -0.09415   0.92344  -0.01537   0.00000  Uiso   1.00
O351   O    -0.04657   1.04459   0.08010   0.00000  Uiso   1.00
O352   O     0.01921   0.96314   0.09227   0.00000  Uiso   1.00
O353   O     0.08151   0.95540   0.04077   0.00000  Uiso   1.00
C354   C     0.08488   1.06694  -0.05152   0.00000  Uiso   1.00
C355   C    -0.08086   1.03356  -0.10606   0.00000  Uiso   1.00
C356   C     0.03224   0.89803  -0.08203   0.00000  Uiso   1.00
C357   C    -0.10504   0.92252   0.02989   0.00000  Uiso   1.00
C358   C    -0.05004   1.08759   0.06240   0.00000  Uiso   1.00
C359   C     0.06352   0.95155   0.08363   0.00000  Uiso   1.00
Zn360  Zn    0.47070  -0.01682   0.42903   0.00000  Uiso   1.00
Zn361  Zn    0.45115  -0.04866   0.53180   0.00000  Uiso   1.00
Zn362  Zn    0.55392  -0.02911   0.49996   0.00000  Uiso   1.00
Zn363  Zn    0.48299   0.05411   0.51225   0.00000  Uiso   1.00
O364   O     0.48976  -0.01005   0.49319   0.00000  Uiso   1.00
O365   O     0.41894  -0.05725   0.42149   0.00000  Uiso   1.00
O366   O     0.48488  -0.09597   0.56233   0.00000  Uiso   1.00
O367   O     0.58073  -0.04742   0.44266   0.00000  Uiso   1.00
O368   O     0.40384  -0.07919   0.49807   0.00000  Uiso   1.00
O369   O     0.51889  -0.04026   0.39056   0.00000  Uiso   1.00
O370   O     0.56146  -0.08087   0.54039   0.00000  Uiso   1.00
O371   O     0.54029   0.08092   0.53056   0.00000  Uiso   1.00
O372   O     0.42062  -0.01493   0.57911   0.00000  Uiso   1.00
O373   O     0.59239   0.01908   0.52340   0.00000  Uiso   1.00
O374   O     0.44255   0.06165   0.56401   0.00000  Uiso   1.00
O375   O     0.45955   0.09258   0.46406   0.00000  Uiso   1.00
O376   O     0.45239   0.04048   0.40222   0.00000  Uiso   1.00
C377   C     0.39347  -0.08073   0.45269   0.00000  Uiso   1.00
C378   C     0.53026  -0.10634   0.56387   0.00000  Uiso   1.00
C379   C     0.56330  -0.05120   0.39959   0.00000  Uiso   1.00
C380   C     0.58336   0.06349   0.53434   0.00000  Uiso   1.00
C381   C     0.41908   0.03045   0.58947   0.00000  Uiso   1.00
C382   C     0.44861   0.08355   0.41965   0.00000  Uiso   1.00
Zn383  Zn    0.92940   0.47176   0.49608   0.00000  Uiso   1.00
Zn384  Zn    1.03207   0.45287   0.52854   0.00000  Uiso   1.00
Zn385  Zn    1.01295   0.48453   0.42565   0.00000  Uiso   1.00
Zn386  Zn    0.99970   0.55553   0.50874   0.00000  Uiso   1.00
O387   O     0.99347   0.49126   0.48969   0.00000  Uiso   1.00
O388   O     0.92194   0.41994   0.53638   0.00000  Uiso   1.00
O389   O     1.07868   0.42130   0.49493   0.00000  Uiso   1.00
O390   O     0.96496   0.46134   0.38685   0.00000  Uiso   1.00
O391   O     0.99832   0.40605   0.55970   0.00000  Uiso   1.00
O392   O     0.90285   0.45362   0.43855   0.00000  Uiso   1.00
O393   O     1.06425   0.44347   0.41831   0.00000  Uiso   1.00
O394   O     1.02261   0.59423   0.46037   0.00000  Uiso   1.00
O395   O     1.06336   0.48698   0.57506   0.00000  Uiso   1.00
O396   O     1.03160   0.54182   0.39902   0.00000  Uiso   1.00
O397   O     1.04079   0.56339   0.56000   0.00000  Uiso   1.00
O398   O     0.94218   0.58170   0.52774   0.00000  Uiso   1.00
O399   O     0.89068   0.51940   0.52000   0.00000  Uiso   1.00
C400   C     0.95306   0.39515   0.56062   0.00000  Uiso   1.00
C401   C     1.08901   0.41934   0.44958   0.00000  Uiso   1.00
C402   C     0.92055   0.45016   0.39555   0.00000  Uiso   1.00
C403   C     1.03447   0.58507   0.41620   0.00000  Uiso   1.00
C404   C     1.06498   0.53243   0.58511   0.00000  Uiso   1.00
C405   C     0.89932   0.56371   0.53159   0.00000  Uiso   1.00
Zn406  Zn    0.48687   0.42959   1.01138   0.00000  Uiso   1.00
Zn407  Zn    0.47421   0.49989   0.92761   0.00000  Uiso   1.00
Zn408  Zn    0.45441   0.53226   1.03027   0.00000  Uiso   1.00
Zn409  Zn    0.55730   0.51314   0.99861   0.00000  Uiso   1.00
O410   O     0.49326   0.49366   0.99188   0.00000  Uiso   1.00
O411   O     0.46295   0.39087   0.96374   0.00000  Uiso   1.00
O412   O     0.42295   0.54098   0.91975   0.00000  Uiso   1.00
O413   O     0.42325   0.49851   1.07709   0.00000  Uiso   1.00
O414   O     0.45521   0.44237   0.90144   0.00000  Uiso   1.00
O415   O     0.44657   0.42213   1.06319   0.00000  Uiso   1.00
O416   O     0.40789   0.56355   0.99616   0.00000  Uiso   1.00
O417   O     0.56464   0.56444   1.03966   0.00000  Uiso   1.00
O418   O     0.52258   0.52280   0.88891   0.00000  Uiso   1.00
O419   O     0.48802   0.57887   1.06184   0.00000  Uiso   1.00
O420   O     0.58393   0.53179   0.94132   0.00000  Uiso   1.00
O421   O     0.59610   0.46515   1.02180   0.00000  Uiso   1.00
O422   O     0.54440   0.40304   1.02951   0.00000  Uiso   1.00
C423   C     0.45136   0.39951   0.91943   0.00000  Uiso   1.00
C424   C     0.39784   0.56517   0.95071   0.00000  Uiso   1.00
C425   C     0.42232   0.45325   1.08799   0.00000  Uiso   1.00
C426   C     0.53337   0.58920   1.06380   0.00000  Uiso   1.00
C427   C     0.56675   0.53466   0.89806   0.00000  Uiso   1.00
C428   C     0.58740   0.42074   1.03298   0.00000  Uiso   1.00
loop_
_geom_bond_atom_site_label_1
_geom_bond_atom_site_label_2
_geom_bond_distance
_geom_bond_site_symmetry_2
_ccdc_geom_bond_type
N1     C6      1.436   .     S
N1     C5      1.440   .     S
N1     H2      1.046   .     S
N3     C6      1.358   .     A
N3     C42     1.358   .     A
C4     C11     1.407   .     A
C4     C7      1.407   .     A
C4     C401    1.485   1_455 S
C5     C13     1.407   .     A
C5     C9      1.401   .     A
C6     N17     1.358   .     A
C7     C9      1.397   .     A
C7     H8      1.083   .     S
C9     H10     1.083   .     S
C11    C13     1.401   .     A
C11    H12     1.083   .     S
C13    H14     1.081   .     S
N15    C20     1.435   .     S
N15    C19     1.439   .     S
N15    H16     1.045   .     S
N17    C20     1.359   .     A
C18    C25     1.407   .     A
C18    C21     1.407   .     A
C18    C382    1.484   .     S
C19    C27     1.405   .     A
C19    C23     1.401   .     A
C20    N31     1.359   .     A
C21    C23     1.398   .     A
C21    H22     1.083   .     S
C23    H24     1.083   .     S
C25    C27     1.400   .     A
C25    H26     1.083   .     S
C27    H28     1.082   .     S
N29    C42     1.437   .     S
N29    C37     1.441   .     S
N29    H30     1.046   .     S
N31    C42     1.359   .     A
C32    C40     1.407   .     A
C32    C33     1.406   .     A
C32    C425    1.484   1_554 S
C33    C35     1.396   .     A
C33    H34     1.083   .     S
C35    C37     1.402   .     A
C35    H36     1.083   .     S
C37    C38     1.407   .     A
C38    C40     1.402   .     A
C38    H39     1.081   .     S
C40    H41     1.083   .     S
N43    C48     1.437   .     S
N43    C47     1.441   .     S
N43    H44     1.046   .     S
N45    C48     1.358   .     A
N45    C84     1.359   .     A
C46    C53     1.407   .     A
C46    C49     1.406   .     A
C46    C424    1.485   .     S
C47    C55     1.407   .     A
C47    C51     1.402   .     A
C48    N59     1.359   .     A
C49    C51     1.397   .     A
C49    H50     1.083   .     S
C51    H52     1.083   .     S
C53    C55     1.402   .     A
C53    H54     1.083   .     S
C55    H56     1.081   .     S
N57    C62     1.437   .     S
N57    C61     1.441   .     S
N57    H58     1.046   .     S
N59    C62     1.358   .     A
C60    C67     1.407   .     A
C60    C63     1.406   .     A
C60    C356    1.485   1_556 S
C61    C69     1.407   .     A
C61    C65     1.402   .     A
C62    N73     1.359   .     A
C63    C65     1.397   .     A
C63    H64     1.083   .     S
C65    H66     1.083   .     S
C67    C69     1.402   .     A
C67    H68     1.083   .     S
C69    H70     1.081   .     S
N71    C84     1.437   .     S
N71    C79     1.441   .     S
N71    H72     1.046   .     S
N73    C84     1.358   .     A
C74    C82     1.407   .     A
C74    C75     1.406   .     A
C74    C404    1.485   1_455 S
C75    C77     1.397   .     A
C75    H76     1.083   .     S
C77    C79     1.402   .     A
C77    H78     1.083   .     S
C79    C80     1.407   .     A
C80    C82     1.402   .     A
C80    H81     1.081   .     S
C82    H83     1.083   .     S
N85    H86     1.046   .     S
N85    C89     1.441   .     S
N85    C90     1.437   .     S
N87    C90     1.359   .     A
N87    C126    1.359   .     A
C88    C91     1.406   .     A
C88    C95     1.407   .     A
C88    C357    1.484   1_655 S
C89    C93     1.402   .     A
C89    C97     1.407   .     A
C90    N101    1.358   .     A
C91    H92     1.083   .     S
C91    C93     1.396   .     A
C93    H94     1.083   .     S
C95    H96     1.083   .     S
C95    C97     1.402   .     A
C97    H98     1.081   .     S
N99    H100    1.046   .     S
N99    C103    1.440   .     S
N99    C104    1.436   .     S
N101   C104    1.358   .     A
C102   C105    1.407   .     A
C102   C109    1.407   .     A
C102   C426    1.485   1_554 S
C103   C107    1.401   .     A
C103   C111    1.407   .     A
C104   N115    1.358   .     A
C105   C107    1.397   .     A
C105   H106    1.083   .     S
C107   H108    1.083   .     S
C109   C111    1.401   .     A
C109   H110    1.083   .     S
C111   H112    1.081   .     S
N113   C126    1.435   .     S
N113   C121    1.439   .     S
N113   H114    1.045   .     S
N115   C126    1.359   .     A
C116   C124    1.407   .     A
C116   C117    1.407   .     A
C116   C379    1.484   1_565 S
C117   C119    1.400   .     A
C117   H118    1.083   .     S
C119   C121    1.405   .     A
C119   H120    1.082   .     S
C121   C122    1.401   .     A
C122   C124    1.398   .     A
C122   H123    1.083   .     S
C124   H125    1.083   .     S
N127   H128    1.045   .     S
N127   C131    1.439   .     S
N127   C132    1.435   .     S
N129   C132    1.359   .     A
N129   C168    1.358   .     A
C130   C133    1.407   .     A
C130   C137    1.407   .     A
C130   C380    1.484   .     S
C131   C135    1.401   .     A
C131   C139    1.405   .     A
C132   N143    1.359   .     A
C133   H134    1.083   .     S
C133   C135    1.398   .     A
C135   H136    1.083   .     S
C137   H138    1.083   .     S
C137   C139    1.400   .     A
C139   H140    1.082   .     S
N141   H142    1.046   .     S
N141   C145    1.441   .     S
N141   C146    1.437   .     S
N143   C146    1.359   .     A
C144   C147    1.406   .     A
C144   C151    1.407   .     A
C144   C400    1.484   .     S
C145   C149    1.402   .     A
C145   C153    1.407   .     A
C146   N157    1.358   .     A
C147   C149    1.396   .     A
C147   H148    1.083   .     S
C149   H150    1.083   .     S
C151   C153    1.402   .     A
C151   H152    1.083   .     S
C153   H154    1.081   .     S
N155   C168    1.436   .     S
N155   C163    1.440   .     S
N155   H156    1.046   .     S
N157   C168    1.358   .     A
C158   C166    1.407   .     A
C158   C159    1.407   .     A
C158   C355    1.485   1_646 S
C159   C161    1.397   .     A
C159   H160    1.083   .     S
C161   C163    1.401   .     A
C161   H162    1.083   .     S
C163   C164    1.407   .     A
C164   C166    1.401   .     A
C164   H165    1.081   .     S
C166   H167    1.083   .     S
N169   H170    1.045   .     S
N169   C173    1.438   .     S
N169   C174    1.436   .     S
N171   C174    1.360   .     A
N171   C210    1.359   .     A
C172   C175    1.408   .     A
C172   C179    1.406   .     A
C172   C405    1.484   .     S
C173   C177    1.405   .     A
C173   C181    1.402   .     A
C174   N185    1.359   .     A
C175   H176    1.083   .     S
C175   C177    1.401   .     A
C177   H178    1.082   .     S
C179   H180    1.083   .     S
C179   C181    1.398   .     A
C181   H182    1.083   .     S
N183   H184    1.046   .     S
N183   C187    1.441   .     S
N183   C188    1.437   .     S
N185   C188    1.359   .     A
C186   C189    1.406   .     A
C186   C193    1.407   .     A
C186   C378    1.485   1_565 S
C187   C191    1.402   .     A
C187   C195    1.407   .     A
C188   N199    1.358   .     A
C189   C191    1.397   .     A
C189   H190    1.083   .     S
C191   H192    1.083   .     S
C193   C195    1.402   .     A
C193   H194    1.083   .     S
C195   H196    1.081   .     S
N197   C210    1.436   .     S
N197   C205    1.440   .     S
N197   H198    1.045   .     S
N199   C210    1.359   .     A
C200   C208    1.408   .     A
C200   C201    1.407   .     A
C200   C427    1.485   .     S
C201   C203    1.398   .     A
C201   H202    1.083   .     S
C203   C205    1.402   .     A
C203   H204    1.083   .     S
C205   C206    1.405   .     A
C206   C208    1.401   .     A
C206   H207    1.082   .     S
C208   H209    1.083   .     S
N211   H212    1.045   .     S
N211   C215    1.438   .     S
N211   C216    1.436   .     S
N213   C216    1.359   .     A
N213   C252    1.359   .     A
C214   C217    1.408   .     A
C214   C221    1.406   .     A
C214   C428    1.484   1_554 S
C215   C219    1.405   .     A
C215   C223    1.402   .     A
C216   N227    1.359   .     A
C217   H218    1.083   .     S
C217   C219    1.401   .     A
C219   H220    1.082   .     S
C221   H222    1.083   .     S
C221   C223    1.398   .     A
C223   H224    1.083   .     S
N225   H226    1.045   .     S
N225   C229    1.438   .     S
N225   C230    1.436   .     S
N227   C230    1.359   .     A
C228   C231    1.408   .     A
C228   C235    1.406   .     A
C228   C358    1.484   1_645 S
C229   C233    1.405   .     A
C229   C237    1.402   .     A
C230   N241    1.359   .     A
C231   C233    1.401   .     A
C231   H232    1.083   .     S
C233   H234    1.082   .     S
C235   C237    1.398   .     A
C235   H236    1.083   .     S
C237   H238    1.083   .     S
N239   C252    1.436   .     S
N239   C247    1.438   .     S
N239   H240    1.045   .     S
N241   C252    1.359   .     A
C242   C250    1.408   .     A
C242   C243    1.406   .     A
C242   C402    1.484   .     S
C243   C245    1.398   .     A
C243   H244    1.083   .     S
C245   C247    1.402   .     A
C245   H246    1.083   .     S
C247   C248    1.405   .     A
C248   C250    1.401   .     A
C248   H249    1.082   .     S
C250   H251    1.083   .     S
N253   H254    1.045   .     S
N253   C257    1.440   .     S
N253   C258    1.436   .     S
N255   C258    1.359   .     A
N255   C294    1.358   .     A
C256   C259    1.408   .     A
C256   C263    1.407   .     A
C256   C354    1.485   1_546 S
C257   C261    1.405   .     A
C257   C265    1.402   .     A
C258   N269    1.359   .     A
C259   H260    1.083   .     S
C259   C261    1.401   .     A
C261   H262    1.082   .     S
C263   H264    1.083   .     S
C263   C265    1.398   .     A
C265   H266    1.083   .     S
N267   H268    1.045   .     S
N267   C271    1.438   .     S
N267   C272    1.436   .     S
N269   C272    1.360   .     A
C270   C273    1.408   .     A
C270   C277    1.406   .     A
C270   C423    1.484   .     S
C271   C275    1.405   .     A
C271   C279    1.402   .     A
C272   N283    1.359   .     A
C273   C275    1.401   .     A
C273   H274    1.083   .     S
C275   H276    1.082   .     S
C277   C279    1.398   .     A
C277   H278    1.083   .     S
C279   H280    1.083   .     S
N281   C294    1.437   .     S
N281   C289    1.441   .     S
N281   H282    1.046   .     S
N283   C294    1.359   .     A
C284   C292    1.407   .     A
C284   C285    1.406   .     A
C284   C381    1.485   .     S
C285   C287    1.397   .     A
C285   H286    1.083   .     S
C287   C289    1.402   .     A
C287   H288    1.083   .     S
C289   C290    1.407   .     A
C290   C292    1.402   .     A
C290   H291    1.081   .     S
C292   H293    1.083   .     S
N295   H296    1.046   .     S
N295   C299    1.441   .     S
N295   C300    1.437   .     S
N297   C300    1.359   .     A
N297   C336    1.359   .     A
C298   C301    1.406   .     A
C298   C305    1.407   .     A
C298   C377    1.485   1_565 S
C299   C303    1.402   .     A
C299   C307    1.407   .     A
C300   N311    1.358   .     A
C301   H302    1.083   .     S
C301   C303    1.397   .     A
C303   H304    1.083   .     S
C305   H306    1.083   .     S
C305   C307    1.402   .     A
C307   H308    1.081   .     S
N309   H310    1.045   .     S
N309   C313    1.440   .     S
N309   C314    1.436   .     S
N311   C314    1.359   .     A
C312   C315    1.408   .     A
C312   C319    1.407   .     A
C312   C403    1.485   1_455 S
C313   C317    1.405   .     A
C313   C321    1.402   .     A
C314   N325    1.359   .     A
C315   C317    1.401   .     A
C315   H316    1.083   .     S
C317   H318    1.082   .     S
C319   C321    1.398   .     A
C319   H320    1.083   .     S
C321   H322    1.083   .     S
N323   C336    1.436   .     S
N323   C331    1.438   .     S
N323   H324    1.045   .     S
N325   C336    1.360   .     A
C326   C334    1.408   .     A
C326   C327    1.406   .     A
C326   C359    1.484   .     S
C327   C329    1.398   .     A
C327   H328    1.083   .     S
C329   C331    1.402   .     A
C329   H330    1.083   .     S
C331   C332    1.405   .     A
C332   C334    1.401   .     A
C332   H333    1.082   .     S
C334   H335    1.083   .     S
Zn337  O341    1.835   .     S
Zn337  O342    1.800   .     S
Zn337  O346    1.804   .     S
Zn337  O353    1.799   .     S
Zn338  O341    1.834   .     S
Zn338  O343    1.802   .     S
Zn338  O345    1.796   .     S
Zn338  O349    1.797   .     S
Zn339  O341    1.823   .     S
Zn339  O344    1.789   .     S
Zn339  O347    1.787   .     S
Zn339  O350    1.788   .     S
Zn340  O341    1.834   .     S
Zn340  O348    1.801   .     S
Zn340  O351    1.797   .     S
Zn340  O352    1.796   .     S
O342   C354    1.271   .     A
O343   C355    1.271   .     A
O344   C356    1.270   .     A
O345   C354    1.271   .     A
O346   C356    1.271   .     A
O347   C355    1.269   .     A
O348   C357    1.270   .     A
O349   C358    1.271   .     A
O350   C357    1.269   .     A
O351   C358    1.271   .     A
O352   C359    1.271   .     A
O353   C359    1.271   .     A
C354   C256    1.485   1_564 S
C355   C158    1.485   1_464 S
C356   C60     1.485   1_554 S
C357   C88     1.484   1_455 S
C358   C228    1.484   1_465 S
Zn360  O364    1.834   .     S
Zn360  O365    1.802   .     S
Zn360  O369    1.798   .     S
Zn360  O376    1.795   .     S
Zn361  O364    1.823   .     S
Zn361  O366    1.789   .     S
Zn361  O368    1.789   .     S
Zn361  O372    1.789   .     S
Zn362  O364    1.834   .     S
Zn362  O367    1.795   .     S
Zn362  O370    1.802   .     S
Zn362  O373    1.798   .     S
Zn363  O364    1.834   .     S
Zn363  O371    1.795   .     S
Zn363  O374    1.802   .     S
Zn363  O375    1.798   .     S
O365   C377    1.271   .     A
O366   C378    1.270   .     A
O367   C379    1.271   .     A
O368   C377    1.270   .     A
O369   C379    1.271   .     A
O370   C378    1.271   .     A
O371   C380    1.271   .     A
O372   C381    1.270   .     A
O373   C380    1.271   .     A
O374   C381    1.271   .     A
O375   C382    1.271   .     A
O376   C382    1.271   .     A
C377   C298    1.485   1_545 S
C378   C186    1.485   1_545 S
C379   C116    1.484   1_545 S
Zn383  O387    1.834   .     S
Zn383  O388    1.801   .     S
Zn383  O392    1.797   .     S
Zn383  O399    1.796   .     S
Zn384  O387    1.823   .     S
Zn384  O389    1.787   .     S
Zn384  O391    1.788   .     S
Zn384  O395    1.789   .     S
Zn385  O387    1.834   .     S
Zn385  O390    1.797   .     S
Zn385  O393    1.802   .     S
Zn385  O396    1.796   .     S
Zn386  O387    1.835   .     S
Zn386  O394    1.800   .     S
Zn386  O397    1.804   .     S
Zn386  O398    1.799   .     S
O388   C400    1.270   .     A
O389   C401    1.269   .     A
O390   C402    1.271   .     A
O391   C400    1.269   .     A
O392   C402    1.271   .     A
O393   C401    1.271   .     A
O394   C403    1.271   .     A
O395   C404    1.270   .     A
O396   C403    1.271   .     A
O397   C404    1.271   .     A
O398   C405    1.271   .     A
O399   C405    1.271   .     A
C401   C4      1.485   1_655 S
C403   C312    1.485   1_655 S
C404   C74     1.485   1_655 S
Zn406  O410    1.834   .     S
Zn406  O411    1.796   .     S
Zn406  O415    1.801   .     S
Zn406  O422    1.797   .     S
Zn407  O410    1.835   .     S
Zn407  O412    1.804   .     S
Zn407  O414    1.799   .     S
Zn407  O418    1.800   .     S
Zn408  O410    1.823   .     S
Zn408  O413    1.788   .     S
Zn408  O416    1.789   .     S
Zn408  O419    1.787   .     S
Zn409  O410    1.834   .     S
Zn409  O417    1.802   .     S
Zn409  O420    1.796   .     S
Zn409  O421    1.797   .     S
O411   C423    1.271   .     A
O412   C424    1.271   .     A
O413   C425    1.269   .     A
O414   C423    1.271   .     A
O415   C425    1.270   .     A
O416   C424    1.270   .     A
O417   C426    1.271   .     A
O418   C427    1.271   .     A
O419   C426    1.269   .     A
O420   C427    1.271   .     A
O421   C428    1.271   .     A
O422   C428    1.271   .     A
C425   C32     1.484   1_556 S
C426   C102    1.485   1_556 S
C428   C214    1.484   1_556 S
